   Input file: C:\Users\Rob Rossi\Documents\gittemp\SJV_PWP_AsSe\geochemical_data\PHREEQC\As_PondSpeciation_20230204.pqi
  Output file: C:\Users\Rob Rossi\Documents\gittemp\SJV_PWP_AsSe\geochemical_data\PHREEQC\As_PondSpeciation_20230204.pqo
Database file: C:\Program Files (x86)\USGS\Phreeqc Interactive 3.6.2-15100\database\llnl.dat

------------------
Reading data base.
------------------

	LLNL_AQUEOUS_MODEL_PARAMETERS
	NAMED_EXPRESSIONS
	SOLUTION_MASTER_SPECIES
	SOLUTION_SPECIES
	PHASES
	EXCHANGE_MASTER_SPECIES
	EXCHANGE_SPECIES
	SURFACE_MASTER_SPECIES
	SURFACE_SPECIES
	RATES
	END
------------------------------------
Reading input data for simulation 1.
------------------------------------

	DATABASE C:\Program Files (x86)\USGS\Phreeqc Interactive 3.6.2-15100\database\llnl.dat
	SOLUTION 1 Antelope Hills
	    temp      27
	    pH        7.705
	    pe        4
	    redox     pe
	    units     ppm
	    density   1
	    Alkalinity 2200
	    As        13.5 ppb
	    B         18
	    Ba        1.05
	    C(4)      2562
	    Ca        14.5
	    Cl        3700
	    Fe        0.19
	    K         30
	    Mg        13
	    Mn        14 ppb
	    Na        3400
	    S(6)      42
	    Se        45 ppb
	    Sr        3.2
	    Br        23
	    Li        0.56
	    N(5)      4.25
	    water    1 # kg
	END
-------------------------------------------
Beginning of initial solution calculations.
-------------------------------------------

Initial solution 1.	Antelope Hills


pH will be adjusted to obtain desired alkalinity.

-----------------------------Solution composition------------------------------

	Elements           Molality       Moles

	Alkalinity        4.450e-02   4.450e-02
	As                1.824e-07   1.824e-07
	B                 1.685e-03   1.685e-03
	Ba                7.739e-06   7.739e-06
	Br                2.913e-04   2.913e-04
	C(4)              4.251e-02   4.251e-02
	Ca                3.662e-04   3.662e-04
	Cl                1.056e-01   1.056e-01
	Fe                3.444e-06   3.444e-06
	K                 7.766e-04   7.766e-04
	Li                8.166e-05   8.166e-05
	Mg                5.414e-04   5.414e-04
	Mn                2.579e-07   2.579e-07
	N(5)              3.071e-04   3.071e-04
	Na                1.497e-01   1.497e-01
	S(6)              4.426e-04   4.426e-04
	Se                5.768e-07   5.768e-07
	Sr                3.697e-05   3.697e-05

----------------------------Description of solution----------------------------

                                       pH  =   8.543      Adjust alkalinity
                                       pe  =   4.000    
                        Activity of water  =   0.995
                 Ionic strength (mol/kgw)  =   1.481e-01
                       Mass of water (kg)  =   1.000e+00
                       Total CO2 (mol/kg)  =   4.251e-02
                         Temperature (°C)  =  27.00
                  Electrical balance (eq)  =   8.349e-04
 Percent error, 100*(Cat-|An|)/(Cat+|An|)  =   0.29
                               Iterations  =   6
                                  Total H  = 1.110953e+02
                                  Total O  = 5.566017e+01

----------------------------Distribution of species----------------------------

                                               Log       Log       Log    mole V
   Species          Molality    Activity  Molality  Activity     Gamma   cm³/mol

   OH-             5.252e-06   3.886e-06    -5.280    -5.410    -0.131     (0)  
   H+              3.490e-09   2.862e-09    -8.457    -8.543    -0.086      0.00
   H2O             5.553e+01   9.950e-01     1.744    -0.002     0.000     18.08
As(-3)        0.000e+00
   AsH3            0.000e+00   0.000e+00  -101.157  -101.157     0.000     (0)  
As(3)         2.341e-21
   HAsO2           9.782e-22   9.782e-22   -21.010   -21.010     0.000     (0)  
   As(OH)3         8.504e-22   8.504e-22   -21.070   -21.070     0.000     (0)  
   H2AsO3-         2.609e-22   1.956e-22   -21.584   -21.709    -0.125     (0)  
   AsO2-           2.487e-22   1.865e-22   -21.604   -21.729    -0.125     (0)  
   AsO2OH-2        2.362e-24   7.160e-25   -23.627   -24.145    -0.518     (0)  
As(5)         1.824e-07
   HAsO4-2         1.804e-07   5.467e-08    -6.744    -7.262    -0.518     (0)  
   H2AsO4-         1.248e-09   9.360e-10    -8.904    -9.029    -0.125     (0)  
   AsO4-3          7.676e-10   5.142e-11    -9.115   -10.289    -1.174     (0)  
   H3AsO4          4.812e-16   4.812e-16   -15.318   -15.318     0.000     (0)  
B(-5)         0.000e+00
   BH4-            0.000e+00   0.000e+00  -159.164  -159.289    -0.125     (0)  
B(3)          1.685e-03
   B(OH)3          1.290e-03   1.290e-03    -2.889    -2.889     0.000     (0)  
   BO2-            3.380e-04   2.534e-04    -3.471    -3.596    -0.125     (0)  
   NaB(OH)4        5.134e-05   5.134e-05    -4.290    -4.290     0.000     (0)  
   MgB(OH)4+       4.195e-06   3.146e-06    -5.377    -5.502    -0.125     (0)  
   CaB(OH)4+       1.910e-06   1.433e-06    -5.719    -5.844    -0.125     (0)  
   BaB(OH)4+       2.232e-08   1.674e-08    -7.651    -7.776    -0.125     (0)  
   B2O(OH)5-       1.601e-16   1.200e-16   -15.796   -15.921    -0.125     (0)  
Ba            7.739e-06
   Ba+2            7.096e-06   2.362e-06    -5.149    -5.627    -0.478     (0)  
   BaCO3           5.325e-07   5.325e-07    -6.274    -6.274     0.000     (0)  
   BaCl+           8.285e-08   6.212e-08    -7.082    -7.207    -0.125     (0)  
   BaB(OH)4+       2.232e-08   1.674e-08    -7.651    -7.776    -0.125     (0)  
   BaNO3+          5.602e-09   4.200e-09    -8.252    -8.377    -0.125     (0)  
   BaOH+           3.711e-11   2.782e-11   -10.431   -10.556    -0.125     (0)  
Br(-03)       8.206e-39
   Br3-            2.735e-39   2.051e-39   -38.563   -38.688    -0.125     (0)  
Br(-1)        2.913e-04
   Br-             2.903e-04   2.117e-04    -3.537    -3.674    -0.137     (0)  
   NaBr            1.092e-06   1.092e-06    -5.962    -5.962     0.000     (0)  
   KBr             2.367e-09   2.367e-09    -8.626    -8.626     0.000     (0)  
Br(0)         8.305e-37
   Br2             4.153e-37   4.153e-37   -36.382   -36.382     0.000     (0)  
Br(1)         1.307e-32
   BrO-            8.568e-33   6.425e-33   -32.067   -32.192    -0.125     (0)  
   HBrO            4.502e-33   4.502e-33   -32.347   -32.347     0.000     (0)  
Br(5)         0.000e+00
   BrO3-           0.000e+00   0.000e+00   -73.508   -73.639    -0.131     (0)  
Br(7)         0.000e+00
   BrO4-           0.000e+00   0.000e+00  -107.010  -107.135    -0.125     (0)  
C(4)          4.251e-02
   HCO3-           3.642e-02   2.731e-02    -1.439    -1.564    -0.125     (0)  
   NaHCO3          4.058e-03   4.058e-03    -2.392    -2.392     0.000     (0)  
   CO3-2           1.382e-03   4.397e-04    -2.860    -3.357    -0.497     (0)  
   NaCO3-          2.093e-04   1.569e-04    -3.679    -3.804    -0.125     (0)  
   CO2             1.716e-04   1.778e-04    -3.765    -3.750     0.015     (0)  
   CaCO3           9.008e-05   9.008e-05    -4.045    -4.045     0.000     (0)  
   MgCO3           7.450e-05   7.450e-05    -4.128    -4.128     0.000     (0)  
   MgHCO3+         6.640e-05   4.979e-05    -4.178    -4.303    -0.125     (0)  
   CaHCO3+         3.665e-05   2.748e-05    -4.436    -4.561    -0.125     (0)  
   SrCO3           4.002e-06   4.002e-06    -5.398    -5.398     0.000     (0)  
   BaCO3           5.325e-07   5.325e-07    -6.274    -6.274     0.000     (0)  
   MnCO3           2.108e-07   2.108e-07    -6.676    -6.676     0.000     (0)  
   MnHCO3+         3.944e-09   2.957e-09    -8.404    -8.529    -0.125     (0)  
   FeCO3           1.715e-09   1.715e-09    -8.766    -8.766     0.000     (0)  
   FeHCO3+         1.364e-09   1.023e-09    -8.865    -8.990    -0.125     (0)  
   FeCO3+          2.080e-13   1.560e-13   -12.682   -12.807    -0.125     (0)  
Ca            3.662e-04
   Ca+2            2.342e-04   8.446e-05    -3.630    -4.073    -0.443     (0)  
   CaCO3           9.008e-05   9.008e-05    -4.045    -4.045     0.000     (0)  
   CaHCO3+         3.665e-05   2.748e-05    -4.436    -4.561    -0.125     (0)  
   CaB(OH)4+       1.910e-06   1.433e-06    -5.719    -5.844    -0.125     (0)  
   CaCl+           1.827e-06   1.370e-06    -5.738    -5.863    -0.125     (0)  
   CaSO4           1.288e-06   1.288e-06    -5.890    -5.890     0.000     (0)  
   CaNO3+          1.264e-07   9.477e-08    -6.898    -7.023    -0.125     (0)  
   CaCl2           1.200e-07   1.200e-07    -6.921    -6.921     0.000     (0)  
   CaOH+           5.531e-09   4.148e-09    -8.257    -8.382    -0.125     (0)  
Cl(-1)        1.056e-01
   Cl-             1.042e-01   7.597e-02    -0.982    -1.119    -0.137     (0)  
   NaCl            1.461e-03   1.461e-03    -2.835    -2.835     0.000     (0)  
   MgCl+           1.233e-05   9.245e-06    -4.909    -5.034    -0.125     (0)  
   CaCl+           1.827e-06   1.370e-06    -5.738    -5.863    -0.125     (0)  
   KCl             1.499e-06   1.499e-06    -5.824    -5.824     0.000     (0)  
   SrCl+           6.566e-07   4.924e-07    -6.183    -6.308    -0.125     (0)  
   LiCl            1.613e-07   1.613e-07    -6.792    -6.792     0.000     (0)  
   CaCl2           1.200e-07   1.200e-07    -6.921    -6.921     0.000     (0)  
   BaCl+           8.285e-08   6.212e-08    -7.082    -7.207    -0.125     (0)  
   MnCl+           3.228e-09   2.421e-09    -8.491    -8.616    -0.125     (0)  
   HCl             4.890e-11   4.890e-11   -10.311   -10.311     0.000     (0)  
   FeCl+           5.319e-12   3.989e-12   -11.274   -11.399    -0.125     (0)  
   MnCl3-          3.868e-12   2.900e-12   -11.413   -11.538    -0.125     (0)  
   FeCl2           1.644e-15   1.644e-15   -14.784   -14.784     0.000     (0)  
   FeCl4-2         9.130e-17   2.768e-17   -16.040   -16.558    -0.518     (0)  
   FeCl2+          7.557e-20   5.667e-20   -19.122   -19.247    -0.125     (0)  
   FeCl+2          3.202e-21   1.019e-21   -20.495   -20.992    -0.497     (0)  
   FeCl4-          5.243e-25   3.931e-25   -24.280   -24.405    -0.125     (0)  
Cl(1)         2.356e-34
   ClO-            2.183e-34   1.637e-34   -33.661   -33.786    -0.125     (0)  
   HClO            1.737e-35   1.737e-35   -34.760   -34.760     0.000     (0)  
Cl(3)         0.000e+00
   ClO2-           0.000e+00   0.000e+00   -59.244   -59.369    -0.125     (0)  
   HClO2           0.000e+00   0.000e+00   -64.742   -64.742     0.000     (0)  
Cl(5)         0.000e+00
   ClO3-           0.000e+00   0.000e+00   -71.060   -71.191    -0.131     (0)  
Cl(7)         0.000e+00
   ClO4-           0.000e+00   0.000e+00   -87.169   -87.300    -0.131     (0)  
Fe(2)         3.294e-09
   FeCO3           1.715e-09   1.715e-09    -8.766    -8.766     0.000     (0)  
   FeHCO3+         1.364e-09   1.023e-09    -8.865    -8.990    -0.125     (0)  
   Fe+2            1.979e-10   7.138e-11    -9.704   -10.146    -0.443     (0)  
   FeOH+           1.046e-11   7.847e-12   -10.980   -11.105    -0.125     (0)  
   FeCl+           5.319e-12   3.989e-12   -11.274   -11.399    -0.125     (0)  
   FeSO4           1.161e-12   1.161e-12   -11.935   -11.935     0.000     (0)  
   Fe(OH)2         2.167e-14   2.167e-14   -13.664   -13.664     0.000     (0)  
   FeCl2           1.644e-15   1.644e-15   -14.784   -14.784     0.000     (0)  
   Fe(OH)3-        4.000e-16   2.999e-16   -15.398   -15.523    -0.125     (0)  
   FeCl4-2         9.130e-17   2.768e-17   -16.040   -16.558    -0.518     (0)  
   Fe(OH)4-2       3.440e-22   1.043e-22   -21.463   -21.982    -0.518     (0)  
Fe(3)         3.440e-06
   Fe(OH)3         3.059e-06   3.059e-06    -5.514    -5.514     0.000     (0)  
   Fe(OH)4-        3.562e-07   2.671e-07    -6.448    -6.573    -0.125     (0)  
   Fe(OH)2+        2.509e-08   1.881e-08    -7.601    -7.726    -0.125     (0)  
   FeOH+2          5.134e-13   1.634e-13   -12.290   -12.787    -0.497     (0)  
   FeCO3+          2.080e-13   1.560e-13   -12.682   -12.807    -0.125     (0)  
   Fe+3            4.863e-19   7.279e-20   -18.313   -19.138    -0.825     (0)  
   FeCl2+          7.557e-20   5.667e-20   -19.122   -19.247    -0.125     (0)  
   FeCl+2          3.202e-21   1.019e-21   -20.495   -20.992    -0.497     (0)  
   FeSO4+          1.041e-21   7.805e-22   -20.983   -21.108    -0.125     (0)  
   FeNO3+2         5.121e-22   1.630e-22   -21.291   -21.788    -0.497     (0)  
   Fe2(OH)2+4      5.170e-23   7.186e-25   -22.287   -24.144    -1.857     (0)  
   Fe(SO4)2-       1.671e-24   1.253e-24   -23.777   -23.902    -0.125     (0)  
   FeCl4-          5.243e-25   3.931e-25   -24.280   -24.405    -0.125     (0)  
   Fe3(OH)4+5      1.783e-27   2.824e-30   -26.749   -29.549    -2.800     (0)  
H(0)          1.379e-28
   H2              6.896e-29   7.144e-29   -28.161   -28.146     0.015     (0)  
K             7.766e-04
   K+              7.745e-04   5.649e-04    -3.111    -3.248    -0.137     (0)  
   KCl             1.499e-06   1.499e-06    -5.824    -5.824     0.000     (0)  
   KSO4-           6.297e-07   4.722e-07    -6.201    -6.326    -0.125     (0)  
   KBr             2.367e-09   2.367e-09    -8.626    -8.626     0.000     (0)  
   KOH             6.809e-10   6.809e-10    -9.167    -9.167     0.000     (0)  
   KHSO4           1.283e-15   1.283e-15   -14.892   -14.892     0.000     (0)  
Li            8.166e-05
   Li+             8.145e-05   6.379e-05    -4.089    -4.195    -0.106     (0)  
   LiCl            1.613e-07   1.613e-07    -6.792    -6.792     0.000     (0)  
   LiSO4-          5.139e-08   3.853e-08    -7.289    -7.414    -0.125     (0)  
   LiOH            5.080e-10   5.080e-10    -9.294    -9.294     0.000     (0)  
Mg            5.414e-04
   Mg+2            3.794e-04   1.559e-04    -3.421    -3.807    -0.386     (0)  
   MgCO3           7.450e-05   7.450e-05    -4.128    -4.128     0.000     (0)  
   MgHCO3+         6.640e-05   4.979e-05    -4.178    -4.303    -0.125     (0)  
   MgCl+           1.233e-05   9.245e-06    -4.909    -5.034    -0.125     (0)  
   MgSO4           4.501e-06   4.501e-06    -5.347    -5.347     0.000     (0)  
   MgB(OH)4+       4.195e-06   3.146e-06    -5.377    -5.502    -0.125     (0)  
   Mg4(OH)4+4      1.103e-19   1.533e-21   -18.958   -20.814    -1.857     (0)  
Mn(2)         2.579e-07
   MnCO3           2.108e-07   2.108e-07    -6.676    -6.676     0.000     (0)  
   Mn+2            3.944e-08   1.422e-08    -7.404    -7.847    -0.443     (0)  
   MnHCO3+         3.944e-09   2.957e-09    -8.404    -8.529    -0.125     (0)  
   MnCl+           3.228e-09   2.421e-09    -8.491    -8.616    -0.125     (0)  
   MnSO4           3.700e-10   3.700e-10    -9.432    -9.432     0.000     (0)  
   MnOH+           1.695e-10   1.271e-10    -9.771    -9.896    -0.125     (0)  
   MnNO3+          6.730e-12   5.047e-12   -11.172   -11.297    -0.125     (0)  
   MnCl3-          3.868e-12   2.900e-12   -11.413   -11.538    -0.125     (0)  
   Mn(OH)2         1.085e-13   1.085e-13   -12.965   -12.965     0.000     (0)  
   Mn2(OH)3+       1.427e-14   1.070e-14   -13.846   -13.971    -0.125     (0)  
   Mn(NO3)2        2.838e-15   2.838e-15   -14.547   -14.547     0.000     (0)  
   MnSeO4          1.166e-16   1.166e-16   -15.933   -15.933     0.000     (0)  
   Mn(OH)3-        4.717e-17   3.537e-17   -16.326   -16.451    -0.125     (0)  
   Mn2OH+3         2.342e-17   1.937e-18   -16.630   -17.713    -1.083     (0)  
   Mn(OH)4-2       3.436e-22   1.041e-22   -21.464   -21.982    -0.518     (0)  
Mn(3)         5.320e-29
   Mn+3            5.320e-29   4.400e-30   -28.274   -29.357    -1.083     (0)  
Mn(6)         0.000e+00
   MnO4-2          0.000e+00   0.000e+00   -40.702   -41.220    -0.518     (0)  
Mn(7)         0.000e+00
   MnO4-           0.000e+00   0.000e+00   -46.336   -46.467    -0.131     (0)  
N(5)          3.071e-04
   NO3-            3.070e-04   2.239e-04    -3.513    -3.650    -0.137     (0)  
   CaNO3+          1.264e-07   9.477e-08    -6.898    -7.023    -0.125     (0)  
   SrNO3+          2.011e-08   1.508e-08    -7.697    -7.822    -0.125     (0)  
   BaNO3+          5.602e-09   4.200e-09    -8.252    -8.377    -0.125     (0)  
   MnNO3+          6.730e-12   5.047e-12   -11.172   -11.297    -0.125     (0)  
   HNO3            3.512e-14   3.512e-14   -13.454   -13.454     0.000     (0)  
   Mn(NO3)2        2.838e-15   2.838e-15   -14.547   -14.547     0.000     (0)  
   FeNO3+2         5.121e-22   1.630e-22   -21.291   -21.788    -0.497     (0)  
Na            1.497e-01
   Na+             1.438e-01   1.078e-01    -0.842    -0.967    -0.125     (0)  
   NaHCO3          4.058e-03   4.058e-03    -2.392    -2.392     0.000     (0)  
   NaCl            1.461e-03   1.461e-03    -2.835    -2.835     0.000     (0)  
   NaCO3-          2.093e-04   1.569e-04    -3.679    -3.804    -0.125     (0)  
   NaSO4-          9.748e-05   7.309e-05    -4.011    -4.136    -0.125     (0)  
   NaB(OH)4        5.134e-05   5.134e-05    -4.290    -4.290     0.000     (0)  
   NaBr            1.092e-06   1.092e-06    -5.962    -5.962     0.000     (0)  
   NaOH            7.205e-08   7.205e-08    -7.142    -7.142     0.000     (0)  
O(0)          1.051e-35
   O2              5.256e-36   5.445e-36   -35.279   -35.264     0.015     (0)  
S(6)          4.426e-04
   SO4-2           3.385e-04   1.026e-04    -3.470    -3.989    -0.518     (0)  
   NaSO4-          9.748e-05   7.309e-05    -4.011    -4.136    -0.125     (0)  
   MgSO4           4.501e-06   4.501e-06    -5.347    -5.347     0.000     (0)  
   CaSO4           1.288e-06   1.288e-06    -5.890    -5.890     0.000     (0)  
   KSO4-           6.297e-07   4.722e-07    -6.201    -6.326    -0.125     (0)  
   SrSO4           2.185e-07   2.185e-07    -6.661    -6.661     0.000     (0)  
   LiSO4-          5.139e-08   3.853e-08    -7.289    -7.414    -0.125     (0)  
   MnSO4           3.700e-10   3.700e-10    -9.432    -9.432     0.000     (0)  
   HSO4-           4.186e-11   3.139e-11   -10.378   -10.503    -0.125     (0)  
   FeSO4           1.161e-12   1.161e-12   -11.935   -11.935     0.000     (0)  
   KHSO4           1.283e-15   1.283e-15   -14.892   -14.892     0.000     (0)  
   FeSO4+          1.041e-21   7.805e-22   -20.983   -21.108    -0.125     (0)  
   H2SO4           8.008e-23   8.008e-23   -22.096   -22.096     0.000     (0)  
   Fe(SO4)2-       1.671e-24   1.253e-24   -23.777   -23.902    -0.125     (0)  
Se(-2)        3.116e-39
   HSe-            3.116e-39   2.336e-39   -38.506   -38.631    -0.125     (0)  
   H2Se            0.000e+00   0.000e+00   -43.349   -43.349     0.000     (0)  
   Se-2            0.000e+00   0.000e+00   -44.460   -44.978    -0.518     (0)  
Se(4)         5.767e-07
   SeO3-2          5.635e-07   1.708e-07    -6.249    -6.768    -0.518     (0)  
   HSeO3-          1.324e-08   9.927e-09    -7.878    -8.003    -0.125     (0)  
   H2SeO3          1.097e-14   1.097e-14   -13.960   -13.960     0.000     (0)  
Se(6)         1.005e-10
   SeO4-2          1.005e-10   3.045e-11    -9.998   -10.516    -0.518     (0)  
   MnSeO4          1.166e-16   1.166e-16   -15.933   -15.933     0.000     (0)  
   HSeO4-          1.038e-17   7.781e-18   -16.984   -17.109    -0.125     (0)  
Sr            3.697e-05
   Sr+2            3.207e-05   1.067e-05    -4.494    -4.972    -0.478     (0)  
   SrCO3           4.002e-06   4.002e-06    -5.398    -5.398     0.000     (0)  
   SrCl+           6.566e-07   4.924e-07    -6.183    -6.308    -0.125     (0)  
   SrSO4           2.185e-07   2.185e-07    -6.661    -6.661     0.000     (0)  
   SrNO3+          2.011e-08   1.508e-08    -7.697    -7.822    -0.125     (0)  
   SrOH+           2.538e-10   1.903e-10    -9.595    -9.721    -0.125     (0)  

------------------------------Saturation indices-------------------------------

  Phase               SI** log IAP   log K(300 K,   1 atm)

  Alstonite         1.67      4.26    2.58  BaCa(CO3)2
  Anhydrite        -3.69     -8.06   -4.37  CaSO4
  Antarcticite    -10.42     -6.33    4.09  CaCl2:6H2O
  Aphthitalite    -14.80    -18.69   -3.89  NaK3(SO4)2
  Aragonite         0.97      2.91    1.94  CaCO3
  Arcanite         -8.67    -10.48   -1.82  K2SO4
  Arsenolite      -40.75    -60.50  -19.74  As2O3
  Artinite         -3.03     16.44   19.47  Mg2CO3(OH)2:3H2O
  As              -46.16     -3.80   42.36  As
  As2O5           -37.23    -35.14    2.09  As2O5
  As4O6(cubi)     -81.37   -120.99  -39.63  As4O6
  As4O6(mono)     -81.14   -120.99  -39.86  As4O6
  B               -85.25     23.56  108.81  B
  B(g)           -175.88     23.56  199.44  B
  B2O3            -11.30     -5.77    5.53  B2O3
  Ba             -111.19     29.09  140.28  Ba
  Ba(OH)2:8H2O    -12.99     11.44   24.43  Ba(OH)2:8H2O
  BaBr2           -18.52    -12.98    5.55  BaBr2
  BaBr2:2H2O      -15.24    -12.98    2.26  BaBr2:2H2O
  BaCl2           -10.08     -7.87    2.21  BaCl2
  BaCl2:2H2O       -8.10     -7.87    0.23  BaCl2:2H2O
  BaCl2:H2O        -8.69     -7.87    0.83  BaCl2:H2O
  BaMnO4          -36.76    -46.85  -10.09  BaMnO4
  BaO             -36.02     11.46   47.48  BaO
  Barite            0.37     -9.62   -9.98  BaSO4
  Barytocalcite     1.52      4.26    2.74  BaCa(CO3)2
  BaSeO3           -5.81    -12.39   -6.58  BaSeO3
  BaSeO4           -8.70    -16.14   -7.45  BaSeO4
  Bassanite        -4.33     -8.06   -3.73  CaSO4:0.5H2O
  Birnessite      -43.19   -128.74  -85.55  Mn8O14:5H2O
  Bischofite      -10.45     -6.06    4.39  MgCl2:6H2O
  Bixbyite         -6.27     -7.46   -1.19  Mn2O3
  Bloedite        -11.25    -13.73   -2.48  Na2Mg(SO4)2:4H2O
  Borax            -8.55      3.58   12.14  Na2(B4O5(OH)4):8H2O
  Boric_acid       -2.76     -2.89   -0.13  B(OH)3
  Br2(g)          -36.07    -42.07   -6.00  Br2
  Br2(l)          -35.53    -42.07   -6.53  Br2
  Brucite          -2.88     13.28   16.15  Mg(OH)2
  Burkeite        -16.29     -6.80    9.49  Na6CO3(SO4)2
  C               -38.53     25.16   63.69  C
  C(g)           -155.31     25.16  180.47  C
  Ca             -108.23     30.64  138.87  Ca
  Ca(g)          -133.26     30.64  163.90  Ca
  Ca2Cl2(OH)2:H2O -19.60      6.69   26.29  Ca2Cl2(OH)2:H2O
  Ca3(AsO4)2      -13.73      3.90   17.63  Ca3(AsO4)2
  Ca4Cl2(OH)6:13H2O -35.64     32.69   68.33  Ca4Cl2(OH)6:13H2O
  Calcite           1.11      2.91    1.79  CaCO3
  Carnallite      -14.70    -10.43    4.27  KMgCl3:6H2O
  CaSeO3:2H2O      -6.19    -10.85   -4.65  CaSeO3:2H2O
  CaSeO4          -11.50    -14.59   -3.09  CaSeO4
  CaSO4:0.5H2O(beta)  -4.50     -8.06   -3.56  CaSO4:0.5H2O
  Celestite        -3.23     -8.96   -5.73  SrSO4
  Chloromagnesite -27.67     -6.05   21.63  MgCl2
  Cl2(g)          -39.89    -36.96    2.93  Cl2
  Claudetite      -40.80    -60.50  -19.70  As2O3
  CO2(g)           -2.26    -10.10   -7.84  CO2
  Colemanite      -12.82      8.69   21.51  Ca2B6O11:5H2O
  Dolomite          3.68      6.08    2.40  CaMg(CO3)2
  Dolomite-dis      2.15      6.08    3.93  CaMg(CO3)2
  Dolomite-ord      3.69      6.08    2.39  CaMg(CO3)2
  Downeyite       -17.06    -23.85   -6.79  SeO2
  Epsomite         -5.85     -7.81   -1.96  MgSO4:7H2O
  Fe              -34.01     24.57   58.58  Fe
  Fe(OH)2          -6.85      6.94   13.78  Fe(OH)2
  Fe(OH)3           0.94      6.49    5.54  Fe(OH)3
  Fe2(SO4)3       -52.99    -50.24    2.75  Fe2(SO4)3
  FeO              -6.46      6.94   13.40  FeO
  Ferrite-Ca        4.80     25.99   21.19  CaFe2O4
  Ferrite-Dicalcium -17.24     39.00   56.24  Ca2Fe2O5
  Ferrite-Mg        5.56     26.25   20.69  MgFe2O4
  Ferroselite     -46.01   -126.45  -80.45  FeSe2
  FeSO4           -16.66    -14.14    2.52  FeSO4
  Gaylussite       -3.22      7.94   11.16  CaNa2(CO3)2:5H2O
  Glauberite       -8.52    -13.99   -5.47  Na2Ca(SO4)2
  Goethite          6.03      6.49    0.46  FeOOH
  Gypsum           -3.53     -8.07   -4.53  CaSO4:2H2O
  H2(g)           -25.04    -28.15   -3.11  H2
  H2O(g)           -1.54     -0.00    1.53  H2O
  Halite           -3.65     -2.09    1.57  NaCl
  Hausmannite      -8.05      1.78    9.83  Mn3O4
  HBr(g)          -21.00    -12.22    8.78  HBr
  HCl(g)          -15.88     -9.66    6.21  HCl
  Hematite         13.05     12.98   -0.08  Fe2O3
  Hexahydrite      -6.08     -7.81   -1.73  MgSO4:6H2O
  Huntite           2.41     12.42   10.02  CaMg3(CO3)4
  Hydroboracite   -11.41      8.96   20.36  MgCaB6O11:6H2O
  Hydromagnesite   -4.43     25.96   30.39  Mg5(CO3)4(OH)2:4H2O
  Hydrophilite    -17.96     -6.31   11.65  CaCl2
  Ice              -0.15     -0.00    0.15  H2O
  Jarosite         -7.76    -17.39   -9.63  KFe3(SO4)2(OH)6
  Jarosite-Na      -9.66    -15.11   -5.45  NaFe3(SO4)2(OH)6
  K               -56.41     14.11   70.52  K
  K(g)            -66.91     14.11   81.02  K
  K2CO3:1.5H2O    -12.90      0.48   13.38  K2CO3:1.5H2O
  K2O             -72.95     10.59   83.54  K2O
  K2Se            -62.70    -51.47   11.22  K2Se
  K3H(SO4)2       -22.64    -26.27   -3.62  K3H(SO4)2
  K8H4(CO3)6:3H2O -46.00    -18.29   27.71  K8H4(CO3)6:3H2O
  Kainite         -11.86    -12.17   -0.31  KMgClSO4:3H2O
  Kalicinite       -5.10     -4.81    0.28  KHCO3
  KBr              -8.00     -6.92    1.07  KBr
  Kieserite        -7.53     -7.80   -0.27  MgSO4:H2O
  KMgCl3          -31.51    -10.41   21.09  KMgCl3
  KMgCl3:2H2O     -24.29    -10.42   13.87  KMgCl3:2H2O
  KNaCO3:6H2O      -7.51      2.75   10.26  KNaCO3:6H2O
  Lansfordite      -1.68      3.16    4.84  MgCO3:5H2O
  Lawrencite      -21.34    -12.39    8.95  FeCl2
  Leonite         -14.18    -18.29   -4.11  K2Mg(SO4)2:4H2O
  Li              -59.11     13.16   72.27  Li
  Li(g)           -81.10     13.16   94.27  Li
  Li2Se           -64.32     37.74  102.06  Li2Se
  Lime            -19.33     13.01   32.34  CaO
  Magnesite         0.95      3.17    2.22  MgCO3
  Magnetite         9.75     19.92   10.16  Fe3O4
  Manganite        -3.57     -3.73   -0.16  MnO(OH)
  Manganosite      -8.54      9.24   17.77  MnO
  Melanterite     -11.76    -14.15   -2.39  FeSO4:7H2O
  Mercallite      -14.34    -15.78   -1.44  KHSO4
  Mg              -90.74     30.91  121.65  Mg
  Mg(g)          -110.29     30.91  141.20  Mg
  Mg1.25SO4(OH)0.5:0.5H2O  -9.56     -4.48    5.08  Mg1.25SO4(OH)0.5:0.5H2O
  Mg1.5SO4(OH)    -10.22     -1.16    9.06  Mg1.5SO4(OH)
  MgBr2           -39.42    -11.16   28.27  MgBr2
  MgBr2:6H2O      -16.30    -11.17    5.13  MgBr2:6H2O
  MgCl2:2H2O      -18.67     -6.05   12.62  MgCl2:2H2O
  MgCl2:4H2O      -13.30     -6.05    7.25  MgCl2:4H2O
  MgCl2:H2O       -21.98     -6.05   15.93  MgCl2:H2O
  MgOHCl          -12.14      3.61   15.75  MgOHCl
  MgSeO3          -12.16    -10.57    1.58  MgSeO3
  MgSeO3:6H2O      -7.17    -10.59   -3.42  MgSeO3:6H2O
  MgSO4           -12.52     -7.80    4.72  MgSO4
  Mirabilite       -4.88     -5.95   -1.06  Na2SO4:10H2O
  Misenite        -94.09   -105.17  -11.08  K8H6(SO4)7
  Mn              -55.48     26.87   82.35  Mn
  Mn(OH)2(am)      -5.96      9.24   15.19  Mn(OH)2
  Mn(OH)3         -10.07     -3.73    6.34  Mn(OH)3
  MnCl2:2H2O      -14.05    -10.09    3.96  MnCl2:2H2O
  MnCl2:4H2O      -12.83    -10.09    2.74  MnCl2:4H2O
  MnCl2:H2O       -15.57    -10.09    5.48  MnCl2:H2O
  MnO2(gamma)      -8.41    -24.53  -16.13  MnO2
  MnSe            -42.13    -52.83  -10.70  MnSe
  MnSeO3           -7.34    -14.61   -7.27  MnSeO3
  MnSeO3:2H2O      -8.30    -14.62   -6.32  MnSeO3:2H2O
  MnSO4           -14.37    -11.84    2.53  MnSO4
  Molysite        -35.79    -22.50   13.29  FeCl3
  Monohydrocalcite   0.25      2.90    2.65  CaCO3:H2O
  Na              -50.54     16.39   66.93  Na
  Na(g)           -63.90     16.39   80.29  Na
  Na2CO3           -6.07      5.05   11.12  Na2CO3
  Na2CO3:7H2O      -4.94      5.03    9.97  Na2CO3:7H2O
  Na2O            -51.86     15.15   67.01  Na2O
  Na2Se           -58.66    -46.91   11.74  Na2Se
  Na2Se2          -65.62   -126.61  -60.99  Na2Se2
  Na3H(SO4)2      -18.53    -19.42   -0.89  Na3H(SO4)2
  Na4Ca(SO4)3:2H2O -14.02    -19.91   -5.89  Na4Ca(SO4)3:2H2O
  NaBr             -7.59     -4.64    2.95  NaBr
  NaBr:2H2O        -6.77     -4.65    2.12  NaBr:2H2O
  NaFeO2           -5.63     14.06   19.69  NaFeO2
  Nahcolite        -2.41     -2.53   -0.12  NaHCO3
  Natron           -4.62      5.02    9.65  Na2CO3:10H2O
  Nesquehonite     -2.07      3.17    5.24  MgCO3:3H2O
  Niter            -6.71     -6.90   -0.18  KNO3
  Nitrobarite     -10.48    -12.93   -2.45  Ba(NO3)2
  NO2(g)          -11.61     -3.38    8.24  NO2
  O2(g)           -32.36    -35.26   -2.91  O2
  Oxychloride-Mg   -8.95     16.88   25.83  Mg2Cl(OH)3:4H2O
  Pentahydrite     -6.42     -7.81   -1.39  MgSO4:5H2O
  Periclase        -7.87     13.28   21.15  MgO
  Picromerite     -13.85    -18.29   -4.44  K2Mg(SO4)2:6H2O
  Pirssonite       -3.38      7.95   11.32  Na2Ca(CO3)2:2H2O
  Polyhalite      -20.10    -34.41  -14.31  K2MgCa2(SO4)4:2H2O
  Portlandite      -9.39     13.01   22.40  Ca(OH)2
  Pyrolusite       -6.97    -24.53  -17.57  MnO2
  Rhodochrosite    -0.62     -0.87   -0.24  MnCO3
  Scacchite       -18.74    -10.09    8.65  MnCl2
  Se              -14.44     11.41   25.85  Se
  Se2O5           -60.80    -51.45    9.35  Se2O5
  SeCl4           -76.67    -62.50   14.18  SeCl4
  SeO3            -46.60    -27.60   19.00  SeO3
  Siderite         -2.91     -3.17   -0.26  FeCO3
  Sr             -111.06     29.74  140.80  Sr
  Sr(NO3)2        -13.43    -12.27    1.16  Sr(NO3)2
  Sr(NO3)2:4H2O   -13.02    -12.28    0.74  Sr(NO3)2:4H2O
  Sr(OH)2         -15.23     12.11   27.34  Sr(OH)2
  Sr3(AsO4)2      -19.24      1.20   20.44  Sr3(AsO4)2
  SrBr2           -25.30    -12.32   12.98  SrBr2
  SrBr2:6H2O      -15.99    -12.33    3.65  SrBr2:6H2O
  SrBr2:H2O       -21.82    -12.32    9.50  SrBr2:H2O
  SrCl2           -15.05     -7.21    7.84  SrCl2
  SrCl2:2H2O      -10.48     -7.21    3.27  SrCl2:2H2O
  SrCl2:6H2O       -8.75     -7.22    1.52  SrCl2:6H2O
  SrCl2:H2O       -11.91     -7.21    4.69  SrCl2:H2O
  SrO             -29.48     12.11   41.60  SrO
  SrSeO4          -11.09    -15.49   -4.40  SrSeO4
  Starkeyite       -6.81     -7.80   -1.00  MgSO4:4H2O
  Strontianite      2.36      2.01   -0.35  SrCO3
  Sylvite          -5.21     -4.37    0.85  KCl
  Syngenite       -10.95    -18.55   -7.60  K2Ca(SO4)2:H2O
  Tachyhydrite    -35.57    -18.43   17.14  Mg2CaCl6:12H2O
  Thenardite       -5.56     -5.92   -0.36  Na2SO4
  Thermonatrite    -5.86      5.04   10.90  Na2CO3:H2O
  Todorokite      -34.87    -80.69  -45.82  Mn7O12:3H2O
  Trona-K         -13.64     -2.05   11.59  K2NaH(CO3)2:2H2O
  Witherite         4.35      1.35   -3.00  BaCO3
  Wustite          -5.76      6.52   12.28  Fe.947O

**For a gas, SI = log10(fugacity). Fugacity = pressure * phi / 1 atm.
  For ideal gases, phi = 1.

------------------
End of simulation.
------------------

------------------------------------
Reading input data for simulation 2.
------------------------------------

	SOLUTION 2 Belgian Anticline
	    temp      21
	    pH        7.81
	    pe        4
	    redox     pe
	    units     ppm
	    density   1
	    As        52.5 ppb        N(-03)/N(5)
	    B         61.5
	    Ba        3.45
	    Br        34
	    C(4)      1116.3
	    Ca        230
	    Cl        8550
	    Fe        0.2
	    K         96
	    Li        2.5
	    Mg        85.5
	    Mn        170 ppb
	    N(-03)    100
	    N(5)      15.062
	    Na        5550
	    S(6)      150
	    Se        160 ppb
	    Sr        6.8
	    Alkalinity 915
	    water    1 # kg
	END
-------------------------------------------
Beginning of initial solution calculations.
-------------------------------------------

Initial solution 2.	Belgian Anticline


pH will be adjusted to obtain desired alkalinity.

-----------------------------Solution composition------------------------------

	Elements           Molality       Moles

	Alkalinity        1.860e-02   1.860e-02
	As                7.128e-07   7.128e-07
	B                 5.787e-03   5.787e-03
	Ba                2.555e-05   2.555e-05
	Br                4.328e-04   4.328e-04
	C(4)              1.861e-02   1.861e-02
	Ca                5.838e-03   5.838e-03
	Cl                2.453e-01   2.453e-01
	Fe                3.643e-06   3.643e-06
	K                 2.498e-03   2.498e-03
	Li                3.664e-04   3.664e-04
	Mg                3.578e-03   3.578e-03
	Mn                3.148e-06   3.148e-06
	N(-03)            7.262e-03   7.262e-03
	N(5)              1.094e-03   1.094e-03
	Na                2.456e-01   2.456e-01
	S(6)              1.589e-03   1.589e-03
	Se                2.061e-06   2.061e-06
	Sr                7.894e-05   7.894e-05

----------------------------Description of solution----------------------------

                                       pH  =   7.693      Adjust alkalinity
                                       pe  =   4.000    
                        Activity of water  =   0.991
                 Ionic strength (mol/kgw)  =   2.696e-01
                       Mass of water (kg)  =   1.000e+00
                       Total CO2 (mol/kg)  =   1.861e-02
                         Temperature (°C)  =  21.00
                  Electrical balance (eq)  =  -3.567e-03
 Percent error, 100*(Cat-|An|)/(Cat+|An|)  =  -0.69
                               Iterations  =   4
                                  Total H  = 1.110855e+02
                                  Total O  = 5.560759e+01

---------------------------------Redox couples---------------------------------

	Redox couple             pe  Eh (volts)

	N(-03)/N(5)          7.0573      0.4119

----------------------------Distribution of species----------------------------

                                               Log       Log       Log    mole V
   Species          Molality    Activity  Molality  Activity     Gamma   cm³/mol

   OH-             4.949e-07   3.468e-07    -6.305    -6.460    -0.155     (0)  
   H+              2.516e-08   2.029e-08    -7.599    -7.693    -0.093      0.00
   H2O             5.553e+01   9.911e-01     1.744    -0.004     0.000     18.05
As(-3)        0.000e+00
   AsH3            0.000e+00   0.000e+00  -116.499  -116.499     0.000     (0)  
As(3)         2.184e-23
   HAsO2           1.131e-23   1.131e-23   -22.947   -22.947     0.000     (0)  
   As(OH)3         9.827e-24   9.827e-24   -23.008   -23.008     0.000     (0)  
   H2AsO3-         3.561e-25   2.544e-25   -24.448   -24.595    -0.146     (0)  
   AsO2-           3.485e-25   2.489e-25   -24.458   -24.604    -0.146     (0)  
   AsO2OH-2        4.383e-28   1.058e-28   -27.358   -27.975    -0.617     (0)  
As(5)         7.128e-07
   HAsO4-2         6.836e-07   1.650e-07    -6.165    -6.782    -0.617     (0)  
   H2AsO4-         2.870e-08   2.050e-08    -7.542    -7.688    -0.146     (0)  
   AsO4-3          4.753e-10   1.882e-11    -9.323   -10.725    -1.402     (0)  
   H3AsO4          7.047e-14   7.047e-14   -13.152   -13.152     0.000     (0)  
B(-5)         0.000e+00
   BH4-            0.000e+00   0.000e+00  -154.048  -154.194    -0.146     (0)  
B(3)          5.787e-03
   B(OH)3          5.507e-03   5.507e-03    -2.259    -2.259     0.000     (0)  
   BO2-            1.883e-04   1.345e-04    -3.725    -3.871    -0.146     (0)  
   NaB(OH)4        4.846e-05   4.846e-05    -4.315    -4.315     0.000     (0)  
   CaB(OH)4+       2.326e-05   1.662e-05    -4.633    -4.779    -0.146     (0)  
   MgB(OH)4+       1.908e-05   1.363e-05    -4.719    -4.865    -0.146     (0)  
   BaB(OH)4+       4.086e-08   2.919e-08    -7.389    -7.535    -0.146     (0)  
   B2O(OH)5-       4.321e-16   3.086e-16   -15.364   -15.511    -0.146     (0)  
Ba            2.555e-05
   Ba+2            2.489e-05   6.866e-06    -4.604    -5.163    -0.559     (0)  
   BaCl+           4.988e-07   3.563e-07    -6.302    -6.448    -0.146     (0)  
   BaCO3           6.442e-08   6.442e-08    -7.191    -7.191     0.000     (0)  
   BaNO3+          5.681e-08   4.058e-08    -7.246    -7.392    -0.146     (0)  
   BaB(OH)4+       4.086e-08   2.919e-08    -7.389    -7.535    -0.146     (0)  
   BaOH+           1.591e-11   1.136e-11   -10.798   -10.945    -0.146     (0)  
Br(-03)       4.718e-39
   Br3-            1.573e-39   1.123e-39   -38.803   -38.949    -0.146     (0)  
Br(-1)        4.328e-04
   Br-             4.306e-04   2.953e-04    -3.366    -3.530    -0.164     (0)  
   NaBr            2.233e-06   2.233e-06    -5.651    -5.651     0.000     (0)  
   KBr             8.822e-09   8.822e-09    -8.054    -8.054     0.000     (0)  
Br(0)         2.260e-37
   Br2             1.130e-37   1.130e-37   -36.947   -36.947     0.000     (0)  
Br(1)         1.198e-34
   HBrO            9.344e-35   9.344e-35   -34.029   -34.029     0.000     (0)  
   BrO-            2.633e-35   1.881e-35   -34.580   -34.726    -0.146     (0)  
Br(5)         0.000e+00
   BrO3-           0.000e+00   0.000e+00   -81.272   -81.426    -0.155     (0)  
Br(7)         0.000e+00
   BrO4-           0.000e+00   0.000e+00  -117.639  -117.785    -0.146     (0)  
C(4)          1.861e-02
   HCO3-           1.470e-02   1.050e-02    -1.833    -1.979    -0.146     (0)  
   NaHCO3          2.748e-03   2.748e-03    -2.561    -2.561     0.000     (0)  
   CO2             4.937e-04   5.263e-04    -3.307    -3.279     0.028     (0)  
   CaHCO3+         2.821e-04   2.015e-04    -3.550    -3.696    -0.146     (0)  
   MgHCO3+         1.900e-04   1.357e-04    -3.721    -3.867    -0.146     (0)  
   CO3-2           8.187e-05   2.119e-05    -4.087    -4.674    -0.587     (0)  
   CaCO3           7.311e-05   7.311e-05    -4.136    -4.136     0.000     (0)  
   MgCO3           2.387e-05   2.387e-05    -4.622    -4.622     0.000     (0)  
   NaCO3-          1.961e-05   1.401e-05    -4.708    -4.854    -0.146     (0)  
   MnCO3           5.415e-07   5.415e-07    -6.266    -6.266     0.000     (0)  
   SrCO3           3.174e-07   3.174e-07    -6.498    -6.498     0.000     (0)  
   FeHCO3+         2.371e-07   1.693e-07    -6.625    -6.771    -0.146     (0)  
   MnHCO3+         7.542e-08   5.387e-08    -7.123    -7.269    -0.146     (0)  
   BaCO3           6.442e-08   6.442e-08    -7.191    -7.191     0.000     (0)  
   FeCO3           4.005e-08   4.005e-08    -7.397    -7.397     0.000     (0)  
   FeCO3+          6.330e-12   4.521e-12   -11.199   -11.345    -0.146     (0)  
Ca            5.838e-03
   Ca+2            5.302e-03   1.633e-03    -2.276    -2.787    -0.511     (0)  
   CaHCO3+         2.821e-04   2.015e-04    -3.550    -3.696    -0.146     (0)  
   CaCl+           7.886e-05   5.633e-05    -4.103    -4.249    -0.146     (0)  
   CaCO3           7.311e-05   7.311e-05    -4.136    -4.136     0.000     (0)  
   CaSO4           5.864e-05   5.864e-05    -4.232    -4.232     0.000     (0)  
   CaB(OH)4+       2.326e-05   1.662e-05    -4.633    -4.779    -0.146     (0)  
   CaCl2           1.137e-05   1.137e-05    -4.944    -4.944     0.000     (0)  
   CaNO3+          8.528e-06   6.091e-06    -5.069    -5.215    -0.146     (0)  
   CaOH+           1.577e-08   1.127e-08    -7.802    -7.948    -0.146     (0)  
Cl(-1)        2.453e-01
   Cl-             2.402e-01   1.647e-01    -0.619    -0.783    -0.164     (0)  
   NaCl            4.768e-03   4.768e-03    -2.322    -2.322     0.000     (0)  
   MgCl+           2.033e-04   1.452e-04    -3.692    -3.838    -0.146     (0)  
   CaCl+           7.886e-05   5.633e-05    -4.103    -4.249    -0.146     (0)  
   CaCl2           1.137e-05   1.137e-05    -4.944    -4.944     0.000     (0)  
   KCl             8.691e-06   8.691e-06    -5.061    -5.061     0.000     (0)  
   SrCl+           2.704e-06   1.931e-06    -5.568    -5.714    -0.146     (0)  
   LiCl            1.453e-06   1.453e-06    -5.838    -5.838     0.000     (0)  
   BaCl+           4.988e-07   3.563e-07    -6.302    -6.448    -0.146     (0)  
   MnCl+           2.990e-07   2.136e-07    -6.524    -6.670    -0.146     (0)  
   FeCl+           5.072e-09   3.623e-09    -8.295    -8.441    -0.146     (0)  
   MnCl3-          1.962e-09   1.401e-09    -8.707    -8.853    -0.146     (0)  
   HCl             7.471e-10   7.471e-10    -9.127    -9.127     0.000     (0)  
   FeCl2           3.136e-12   3.136e-12   -11.504   -11.504     0.000     (0)  
   FeCl4-2         1.006e-12   2.429e-13   -11.997   -12.615    -0.617     (0)  
   FeCl2+          1.330e-16   9.496e-17   -15.876   -16.022    -0.146     (0)  
   FeCl+2          2.245e-18   5.811e-19   -17.649   -18.236    -0.587     (0)  
   FeCl4-          4.338e-21   3.098e-21   -20.363   -20.509    -0.146     (0)  
Cl(1)         1.238e-36
   ClO-            8.049e-37   5.749e-37   -36.094   -36.240    -0.146     (0)  
   HClO            4.327e-37   4.327e-37   -36.364   -36.364     0.000     (0)  
Cl(3)         0.000e+00
   ClO2-           0.000e+00   0.000e+00   -64.402   -64.548    -0.146     (0)  
   HClO2           0.000e+00   0.000e+00   -69.071   -69.071     0.000     (0)  
Cl(5)         0.000e+00
   ClO3-           0.000e+00   0.000e+00   -78.662   -78.816    -0.155     (0)  
Cl(7)         0.000e+00
   ClO4-           0.000e+00   0.000e+00   -97.261   -97.416    -0.155     (0)  
Fe(2)         3.838e-07
   FeHCO3+         2.371e-07   1.693e-07    -6.625    -6.771    -0.146     (0)  
   Fe+2            9.974e-08   3.073e-08    -7.001    -7.512    -0.511     (0)  
   FeCO3           4.005e-08   4.005e-08    -7.397    -7.397     0.000     (0)  
   FeCl+           5.072e-09   3.623e-09    -8.295    -8.441    -0.146     (0)  
   FeSO4           1.240e-09   1.240e-09    -8.906    -8.906     0.000     (0)  
   FeOH+           6.644e-10   4.745e-10    -9.178    -9.324    -0.146     (0)  
   FeCl2           3.136e-12   3.136e-12   -11.504   -11.504     0.000     (0)  
   FeCl4-2         1.006e-12   2.429e-13   -11.997   -12.615    -0.617     (0)  
   Fe(OH)2         1.841e-13   1.841e-13   -12.735   -12.735     0.000     (0)  
   Fe(OH)3-        5.011e-16   3.579e-16   -15.300   -15.446    -0.146     (0)  
   Fe(OH)4-2       7.241e-23   1.748e-23   -22.140   -22.757    -0.617     (0)  
Fe(3)         3.259e-06
   Fe(OH)3         3.022e-06   3.022e-06    -5.520    -5.520     0.000     (0)  
   Fe(OH)2+        1.852e-07   1.323e-07    -6.732    -6.878    -0.146     (0)  
   Fe(OH)4-        5.190e-08   3.707e-08    -7.285    -7.431    -0.146     (0)  
   FeOH+2          3.160e-11   8.180e-12   -10.500   -11.087    -0.587     (0)  
   FeCO3+          6.330e-12   4.521e-12   -11.199   -11.345    -0.146     (0)  
   Fe+3            2.193e-16   2.594e-17   -15.659   -16.586    -0.927     (0)  
   FeCl2+          1.330e-16   9.496e-17   -15.876   -16.022    -0.146     (0)  
   FeCl+2          2.245e-18   5.811e-19   -17.649   -18.236    -0.587     (0)  
   FeSO4+          7.680e-19   5.486e-19   -18.115   -18.261    -0.146     (0)  
   FeNO3+2         7.457e-19   1.930e-19   -18.127   -18.714    -0.587     (0)  
   Fe2(OH)2+4      2.664e-19   1.801e-21   -18.574   -20.745    -2.170     (0)  
   FeCl4-          4.338e-21   3.098e-21   -20.363   -20.509    -0.146     (0)  
   Fe(SO4)2-       3.853e-21   2.752e-21   -20.414   -20.560    -0.146     (0)  
   Fe3(OH)4+5      8.917e-23   4.977e-26   -22.050   -25.303    -3.253     (0)  
H(0)          5.066e-27
   H2              2.533e-27   2.700e-27   -26.596   -26.569     0.028     (0)  
K             2.498e-03
   K+              2.484e-03   1.703e-03    -2.605    -2.769    -0.164     (0)  
   KCl             8.691e-06   8.691e-06    -5.061    -5.061     0.000     (0)  
   KSO4-           4.816e-06   3.440e-06    -5.317    -5.463    -0.146     (0)  
   KBr             8.822e-09   8.822e-09    -8.054    -8.054     0.000     (0)  
   KOH             2.885e-10   2.885e-10    -9.540    -9.540     0.000     (0)  
   KHSO4           5.311e-14   5.311e-14   -13.275   -13.275     0.000     (0)  
Li            3.664e-04
   Li+             3.643e-04   2.766e-04    -3.438    -3.558    -0.120     (0)  
   LiCl            1.453e-06   1.453e-06    -5.838    -5.838     0.000     (0)  
   LiSO4-          5.807e-07   4.148e-07    -6.236    -6.382    -0.146     (0)  
   LiOH            3.095e-10   3.095e-10    -9.509    -9.509     0.000     (0)  
Mg            3.578e-03
   Mg+2            3.073e-03   1.126e-03    -2.512    -2.948    -0.436     (0)  
   MgCl+           2.033e-04   1.452e-04    -3.692    -3.838    -0.146     (0)  
   MgHCO3+         1.900e-04   1.357e-04    -3.721    -3.867    -0.146     (0)  
   MgSO4           6.892e-05   6.892e-05    -4.162    -4.162     0.000     (0)  
   MgCO3           2.387e-05   2.387e-05    -4.622    -4.622     0.000     (0)  
   MgB(OH)4+       1.908e-05   1.363e-05    -4.719    -4.865    -0.146     (0)  
   Mg4(OH)4+4      2.406e-19   1.626e-21   -18.619   -20.789    -2.170     (0)  
Mn(2)         3.148e-06
   Mn+2            2.187e-06   6.738e-07    -5.660    -6.171    -0.511     (0)  
   MnCO3           5.415e-07   5.415e-07    -6.266    -6.266     0.000     (0)  
   MnCl+           2.990e-07   2.136e-07    -6.524    -6.670    -0.146     (0)  
   MnHCO3+         7.542e-08   5.387e-08    -7.123    -7.269    -0.146     (0)  
   MnSO4           4.004e-08   4.004e-08    -7.398    -7.398     0.000     (0)  
   MnCl3-          1.962e-09   1.401e-09    -8.707    -8.853    -0.146     (0)  
   MnOH+           1.184e-09   8.459e-10    -8.927    -9.073    -0.146     (0)  
   MnNO3+          1.113e-09   7.947e-10    -8.954    -9.100    -0.146     (0)  
   Mn(NO3)2        1.485e-12   1.485e-12   -11.828   -11.828     0.000     (0)  
   Mn(OH)2         1.014e-13   1.014e-13   -12.994   -12.994     0.000     (0)  
   Mn2(OH)3+       9.323e-14   6.659e-14   -13.030   -13.177    -0.146     (0)  
   Mn2OH+3         1.143e-14   6.108e-16   -13.942   -15.214    -1.272     (0)  
   MnSeO4          7.724e-17   7.724e-17   -16.112   -16.112     0.000     (0)  
   Mn(OH)3-        6.504e-18   4.646e-18   -17.187   -17.333    -0.146     (0)  
   Mn(OH)4-2       7.958e-24   1.921e-24   -23.099   -23.716    -0.617     (0)  
Mn(3)         2.488e-27
   Mn+3            2.488e-27   1.329e-28   -26.604   -27.877    -1.272     (0)  
Mn(6)         0.000e+00
   MnO4-2          0.000e+00   0.000e+00   -47.980   -48.597    -0.617     (0)  
Mn(7)         0.000e+00
   MnO4-           0.000e+00   0.000e+00   -54.022   -54.176    -0.155     (0)  
N(-03)        7.262e-03
   N3-             2.419e-03   1.728e-03    -2.616    -2.763    -0.146     (0)  
   HN3             1.919e-06   1.919e-06    -5.717    -5.717     0.000     (0)  
N(5)          1.094e-03
   NO3-            1.085e-03   7.441e-04    -2.965    -3.128    -0.164     (0)  
   CaNO3+          8.528e-06   6.091e-06    -5.069    -5.215    -0.146     (0)  
   SrNO3+          1.355e-07   9.678e-08    -6.868    -7.014    -0.146     (0)  
   BaNO3+          5.681e-08   4.058e-08    -7.246    -7.392    -0.146     (0)  
   MnNO3+          1.113e-09   7.947e-10    -8.954    -9.100    -0.146     (0)  
   Mn(NO3)2        1.485e-12   1.485e-12   -11.828   -11.828     0.000     (0)  
   HNO3            7.182e-13   7.182e-13   -12.144   -12.144     0.000     (0)  
   FeNO3+2         7.457e-19   1.930e-19   -18.127   -18.714    -0.587     (0)  
Na            2.456e-01
   Na+             2.376e-01   1.697e-01    -0.624    -0.770    -0.146     (0)  
   NaCl            4.768e-03   4.768e-03    -2.322    -2.322     0.000     (0)  
   NaHCO3          2.748e-03   2.748e-03    -2.561    -2.561     0.000     (0)  
   NaSO4-          3.998e-04   2.855e-04    -3.398    -3.544    -0.146     (0)  
   NaB(OH)4        4.846e-05   4.846e-05    -4.315    -4.315     0.000     (0)  
   NaCO3-          1.961e-05   1.401e-05    -4.708    -4.854    -0.146     (0)  
   NaBr            2.233e-06   2.233e-06    -5.651    -5.651     0.000     (0)  
   NaOH            1.024e-08   1.024e-08    -7.990    -7.990     0.000     (0)  
O(0)          0.000e+00
   O2              0.000e+00   0.000e+00   -40.407   -40.379     0.028     (0)  
S(6)          1.589e-03
   SO4-2           1.055e-03   2.547e-04    -2.977    -3.594    -0.617     (0)  
   NaSO4-          3.998e-04   2.855e-04    -3.398    -3.544    -0.146     (0)  
   MgSO4           6.892e-05   6.892e-05    -4.162    -4.162     0.000     (0)  
   CaSO4           5.864e-05   5.864e-05    -4.232    -4.232     0.000     (0)  
   KSO4-           4.816e-06   3.440e-06    -5.317    -5.463    -0.146     (0)  
   SrSO4           1.047e-06   1.047e-06    -5.980    -5.980     0.000     (0)  
   LiSO4-          5.807e-07   4.148e-07    -6.236    -6.382    -0.146     (0)  
   MnSO4           4.004e-08   4.004e-08    -7.398    -7.398     0.000     (0)  
   FeSO4           1.240e-09   1.240e-09    -8.906    -8.906     0.000     (0)  
   HSO4-           6.528e-10   4.663e-10    -9.185    -9.331    -0.146     (0)  
   KHSO4           5.311e-14   5.311e-14   -13.275   -13.275     0.000     (0)  
   FeSO4+          7.680e-19   5.486e-19   -18.115   -18.261    -0.146     (0)  
   H2SO4           9.995e-21   9.995e-21   -20.000   -20.000     0.000     (0)  
   Fe(SO4)2-       3.853e-21   2.752e-21   -20.414   -20.560    -0.146     (0)  
Se(-2)        4.401e-32
   HSe-            4.400e-32   3.143e-32   -31.357   -31.503    -0.146     (0)  
   H2Se            4.156e-36   4.156e-36   -35.381   -35.381     0.000     (0)  
   Se-2            5.566e-39   1.344e-39   -38.254   -38.872    -0.617     (0)  
Se(4)         2.061e-06
   SeO3-2          1.800e-06   4.347e-07    -5.745    -6.362    -0.617     (0)  
   HSeO3-          2.608e-07   1.863e-07    -6.584    -6.730    -0.146     (0)  
   H2SeO3          1.391e-12   1.391e-12   -11.857   -11.857     0.000     (0)  
Se(6)         1.764e-12
   SeO4-2          1.764e-12   4.259e-13   -11.753   -12.371    -0.617     (0)  
   MnSeO4          7.724e-17   7.724e-17   -16.112   -16.112     0.000     (0)  
   HSeO4-          9.318e-19   6.656e-19   -18.031   -18.177    -0.146     (0)  
Sr            7.894e-05
   Sr+2            7.474e-05   2.061e-05    -4.126    -4.686    -0.559     (0)  
   SrCl+           2.704e-06   1.931e-06    -5.568    -5.714    -0.146     (0)  
   SrSO4           1.047e-06   1.047e-06    -5.980    -5.980     0.000     (0)  
   SrCO3           3.174e-07   3.174e-07    -6.498    -6.498     0.000     (0)  
   SrNO3+          1.355e-07   9.678e-08    -6.868    -7.014    -0.146     (0)  
   SrOH+           7.228e-11   5.163e-11   -10.141   -10.287    -0.146     (0)  

------------------------------Saturation indices-------------------------------

  Phase               SI** log IAP   log K(294 K,   1 atm)

  Alstonite         0.89      3.48    2.58  BaCa(CO3)2
  Anhydrite        -2.08     -6.38   -4.30  CaSO4
  Antarcticite     -8.47     -4.38    4.09  CaCl2:6H2O
  Aphthitalite    -12.38    -16.26   -3.89  NaK3(SO4)2
  Aragonite         0.89      2.93    2.03  CaCO3
  Arcanite         -7.23     -9.13   -1.90  K2SO4
  Arsenolite      -44.52    -64.56  -20.05  As2O3
  Artinite         -4.76     15.18   19.94  Mg2CO3(OH)2:3H2O
  As              -45.34     -2.00   43.34  As
  As2O5           -32.97    -30.75    2.22  As2O5
  As4O6(cubi)     -88.90   -129.13  -40.23  As4O6
  As4O6(mono)     -88.68   -129.13  -40.45  As4O6
  B               -83.04     28.03  111.07  B
  B(g)           -175.67     28.03  203.70  B
  B2O3            -10.10     -4.51    5.59  B2O3
  Ba             -112.77     30.41  143.18  Ba
  Ba(OH)2:8H2O    -14.44     10.18   24.63  Ba(OH)2:8H2O
  BaBr2           -17.86    -12.22    5.63  BaBr2
  BaBr2:2H2O      -14.44    -12.23    2.21  BaBr2:2H2O
  BaCl2            -8.99     -6.73    2.26  BaCl2
  BaCl2:2H2O       -6.91     -6.74    0.17  BaCl2:2H2O
  BaCl2:H2O        -7.55     -6.73    0.82  BaCl2:H2O
  BaMnO4          -43.67    -53.76  -10.09  BaMnO4
  BaO             -38.22     10.22   48.44  BaO
  Barite            1.32     -8.76  -10.07  BaSO4
  Barytocalcite     0.74      3.48    2.74  BaCa(CO3)2
  BaSeO3           -4.96    -11.53   -6.56  BaSeO3
  BaSeO4          -10.05    -17.53   -7.48  BaSeO4
  Bassanite        -2.72     -6.38   -3.66  CaSO4:0.5H2O
  Birnessite      -60.36   -145.91  -85.55  Mn8O14:5H2O
  Bischofite       -8.93     -4.54    4.39  MgCl2:6H2O
  Bixbyite         -9.10     -9.61   -0.51  Mn2O3
  Bloedite         -9.21    -11.69   -2.48  Na2Mg(SO4)2:4H2O
  Borax            -7.06      4.79   11.85  Na2(B4O5(OH)4):8H2O
  Boric_acid       -2.05     -2.26   -0.20  B(OH)3
  Br2(g)          -36.61    -42.63   -6.02  Br2
  Br2(l)          -35.97    -42.63   -6.66  Br2
  Brucite          -4.12     12.43   16.55  Mg(OH)2
  Burkeite        -15.58     -6.10    9.49  Na6CO3(SO4)2
  C               -34.37     30.71   65.08  C
  C(g)           -153.69     30.71  184.40  C
  Ca             -109.01     32.78  141.79  Ca
  Ca(g)          -134.67     32.78  167.45  Ca
  Ca2Cl2(OH)2:H2O -18.06      8.23   26.29  Ca2Cl2(OH)2:H2O
  Ca3(AsO4)2      -11.12      7.03   18.16  Ca3(AsO4)2
  Ca4Cl2(OH)6:13H2O -34.96     33.37   68.33  Ca4Cl2(OH)6:13H2O
  Calcite           1.04      2.93    1.89  CaCO3
  Carnallite      -12.36     -8.09    4.27  KMgCl3:6H2O
  CaSeO3:2H2O      -4.56     -9.16   -4.60  CaSeO3:2H2O
  CaSeO4          -12.07    -15.16   -3.09  CaSeO4
  CaSO4:0.5H2O(beta)  -2.90     -6.38   -3.48  CaSO4:0.5H2O
  Celestite        -2.57     -8.28   -5.71  SrSO4
  Chloromagnesite -26.71     -4.51   22.20  MgCl2
  Cl2(g)          -40.26    -37.14    3.12  Cl2
  Claudetite      -44.57    -64.56  -19.99  As2O3
  CO2(g)           -1.86     -9.67   -7.80  CO2
  Colemanite       -9.86     11.65   21.51  Ca2B6O11:5H2O
  Dolomite          3.07      5.69    2.62  CaMg(CO3)2
  Dolomite-dis      1.51      5.69    4.19  CaMg(CO3)2
  Dolomite-ord      3.08      5.69    2.61  CaMg(CO3)2
  Downeyite       -14.95    -21.74   -6.79  SeO2
  Epsomite         -4.61     -6.57   -1.96  MgSO4:7H2O
  Fe              -31.85     28.06   59.90  Fe
  Fe(OH)2          -6.26      7.87   14.12  Fe(OH)2
  Fe(OH)3           0.64      6.48    5.84  Fe(OH)3
  Fe2(SO4)3       -47.60    -43.95    3.65  Fe2(SO4)3
  FeO              -5.91      7.87   13.78  FeO
  Ferrite-Ca        3.44     25.57   22.13  CaFe2O4
  Ferrite-Dicalcium -19.77     38.16   57.93  Ca2Fe2O5
  Ferrite-Mg        3.72     25.41   21.69  MgFe2O4
  Ferroselite     -30.52   -112.11  -81.59  FeSe2
  FeSO4           -13.89    -11.11    2.78  FeSO4
  Gaylussite       -4.08      7.08   11.16  CaNa2(CO3)2:5H2O
  Glauberite       -6.05    -11.52   -5.47  Na2Ca(SO4)2
  Goethite          5.81      6.48    0.68  FeOOH
  Gypsum           -1.86     -6.39   -4.53  CaSO4:2H2O
  H2(g)           -23.48    -26.57   -3.09  H2
  H2O(g)           -1.69     -0.00    1.69  H2O
  Halite           -3.11     -1.55    1.55  NaCl
  Hausmannite     -11.18     -0.40   10.79  Mn3O4
  HBr(g)          -20.30    -11.22    9.08  HBr
  HCl(g)          -14.96     -8.48    6.48  HCl
  Hematite         12.59     12.97    0.38  Fe2O3
  Hexahydrite      -4.84     -6.57   -1.73  MgSO4:6H2O
  Huntite           0.59     11.22   10.63  CaMg3(CO3)4
  Hydroboracite    -8.88     11.48   20.36  MgCaB6O11:6H2O
  Hydromagnesite   -7.99     23.48   31.46  Mg5(CO3)4(OH)2:4H2O
  Hydrophilite    -16.29     -4.35   11.94  CaCl2
  Ice              -0.13     -0.00    0.12  H2O
  Jarosite         -4.62    -13.58   -8.96  KFe3(SO4)2(OH)6
  Jarosite-Na      -6.14    -11.58   -5.45  NaFe3(SO4)2(OH)6
  K               -56.89     15.02   71.91  K
  K(g)            -67.71     15.02   82.72  K
  K2CO3:1.5H2O    -13.21      0.17   13.38  K2CO3:1.5H2O
  K2O             -75.21      9.84   85.05  K2O
  K2Se            -55.83    -44.41   11.42  K2Se
  K3H(SO4)2       -19.56    -23.19   -3.62  K3H(SO4)2
  K8H4(CO3)6:3H2O -46.36    -18.65   27.71  K8H4(CO3)6:3H2O
  Kainite          -9.79    -10.11   -0.31  KMgClSO4:3H2O
  Kalicinite       -5.03     -4.75    0.28  KHCO3
  KBr              -7.30     -6.30    1.00  KBr
  Kieserite        -6.28     -6.55   -0.27  MgSO4:H2O
  KMgCl3          -29.63     -8.07   21.56  KMgCl3
  KMgCl3:2H2O     -22.22     -8.07   14.14  KMgCl3:2H2O
  KNaCO3:6H2O      -8.11      2.15   10.26  KNaCO3:6H2O
  Lansfordite      -2.09      2.75    4.84  MgCO3:5H2O
  Lawrencite      -18.34     -9.08    9.26  FeCl2
  Leonite         -11.58    -15.69   -4.11  K2Mg(SO4)2:4H2O
  Li              -59.53     14.23   73.76  Li
  Li(g)           -82.09     14.23   96.32  Li
  Li2Se           -57.26     47.09  104.35  Li2Se
  Lime            -20.44     12.59   33.03  CaO
  Magnesite         0.38      2.77    2.38  MgCO3
  Magnetite         9.91     20.84   10.94  Fe3O4
  Manganite        -4.64     -4.81   -0.16  MnO(OH)
  Manganosite      -9.00      9.21   18.21  MnO
  Melanterite      -8.71    -11.13   -2.42  FeSO4:7H2O
  Mercallite      -12.62    -14.06   -1.44  KHSO4
  Mg              -91.67     32.62  124.30  Mg
  Mg(g)          -111.75     32.62  144.37  Mg
  Mg1.25SO4(OH)0.5:0.5H2O  -8.87     -3.44    5.43  Mg1.25SO4(OH)0.5:0.5H2O
  Mg1.5SO4(OH)     -9.84     -0.33    9.51  Mg1.5SO4(OH)
  MgBr2           -38.95    -10.01   28.94  MgBr2
  MgBr2:6H2O      -15.22    -10.03    5.19  MgBr2:6H2O
  MgCl2:2H2O      -17.48     -4.52   12.95  MgCl2:2H2O
  MgCl2:4H2O      -11.94     -4.53    7.41  MgCl2:4H2O
  MgCl2:H2O       -20.88     -4.52   16.36  MgCl2:H2O
  MgOHCl          -12.22      3.96   16.18  MgOHCl
  MgSeO3          -11.16     -9.31    1.85  MgSeO3
  MgSeO3:6H2O      -5.87     -9.33   -3.46  MgSeO3:6H2O
  MgSO4           -11.59     -6.54    5.05  MgSO4
  Mirabilite       -3.83     -5.17   -1.34  Na2SO4:10H2O
  Misenite        -82.39    -93.46  -11.08  K8H6(SO4)7
  Mn              -54.73     29.40   84.13  Mn
  Mn(OH)2(am)      -6.33      9.21   15.54  Mn(OH)2
  Mn(OH)3         -11.15     -4.81    6.34  Mn(OH)3
  MnCl2:2H2O      -11.82     -7.75    4.08  MnCl2:2H2O
  MnCl2:4H2O      -10.53     -7.75    2.78  MnCl2:4H2O
  MnCl2:H2O       -13.40     -7.74    5.66  MnCl2:H2O
  MnO2(gamma)     -11.26    -27.38  -16.13  MnO2
  MnSe            -34.35    -45.04  -10.69  MnSe
  MnSeO3           -5.26    -12.53   -7.27  MnSeO3
  MnSeO3:2H2O      -6.17    -12.54   -6.37  MnSeO3:2H2O
  MnSO4           -12.53     -9.77    2.76  MnSO4
  Molysite        -32.77    -18.94   13.83  FeCl3
  Monohydrocalcite   0.20      2.92    2.73  CaCO3:H2O
  Na              -51.26     17.02   68.28  Na
  Na(g)           -65.01     17.02   82.02  Na
  Na2CO3           -7.09      4.17   11.26  Na2CO3
  Na2CO3:7H2O      -5.73      4.15    9.88  Na2CO3:7H2O
  Na2O            -54.41     13.84   68.26  Na2O
  Na2Se           -52.42    -40.41   12.00  Na2Se
  Na2Se2          -52.75   -114.85  -62.11  Na2Se2
  Na3H(SO4)2      -16.30    -17.19   -0.89  Na3H(SO4)2
  Na4Ca(SO4)3:2H2O -10.76    -16.66   -5.89  Na4Ca(SO4)3:2H2O
  NaBr             -7.25     -4.30    2.95  NaBr
  NaBr:2H2O        -6.36     -4.31    2.05  NaBr:2H2O
  NaFeO2           -6.87     13.41   20.27  NaFeO2
  Nahcolite        -2.57     -2.75   -0.18  NaHCO3
  Natron           -5.34      4.13    9.47  Na2CO3:10H2O
  Nesquehonite     -2.65      2.75    5.40  MgCO3:3H2O
  Niter            -5.59     -5.90   -0.31  KNO3
  Nitrobarite      -8.83    -11.42   -2.59  Ba(NO3)2
  NO2(g)           -9.28     -0.72    8.56  NO2
  O2(g)           -37.52    -40.38   -2.86  O2
  Oxychloride-Mg   -9.46     16.37   25.83  Mg2Cl(OH)3:4H2O
  Pentahydrite     -5.17     -6.56   -1.39  MgSO4:5H2O
  Periclase        -9.25     12.43   21.68  MgO
  Picromerite     -11.26    -15.70   -4.44  K2Mg(SO4)2:6H2O
  Pirssonite       -4.23      7.09   11.32  Na2Ca(CO3)2:2H2O
  Polyhalite      -14.13    -28.44  -14.31  K2MgCa2(SO4)4:2H2O
  Portlandite     -10.26     12.59   22.85  Ca(OH)2
  Pyrolusite       -9.53    -27.38  -17.86  MnO2
  Rhodochrosite    -0.29     -0.46   -0.17  MnCO3
  Scacchite       -16.66     -7.74    8.92  MnCl2
  Se               -7.96     18.64   26.60  Se
  Se2O5           -59.27    -49.50    9.78  Se2O5
  SeCl4           -70.29    -55.64   14.65  SeCl4
  SeO3            -47.26    -27.75   19.51  SeO3
  Siderite         -1.66     -1.80   -0.14  FeCO3
  Sr             -112.87     30.89  143.75  Sr
  Sr(NO3)2        -12.05    -10.94    1.10  Sr(NO3)2
  Sr(NO3)2:4H2O   -11.53    -10.96    0.57  Sr(NO3)2:4H2O
  Sr(OH)2         -17.20     10.69   27.89  Sr(OH)2
  Sr3(AsO4)2      -19.64      1.34   20.97  Sr3(AsO4)2
  SrBr2           -24.99    -11.75   13.25  SrBr2
  SrBr2:6H2O      -15.34    -11.77    3.58  SrBr2:6H2O
  SrBr2:H2O       -21.42    -11.75    9.67  SrBr2:H2O
  SrCl2           -14.29     -6.25    8.03  SrCl2
  SrCl2:2H2O       -9.59     -6.26    3.33  SrCl2:2H2O
  SrCl2:6H2O       -7.71     -6.28    1.43  SrCl2:6H2O
  SrCl2:H2O       -11.07     -6.26    4.82  SrCl2:H2O
  SrO             -31.77     10.70   42.46  SrO
  SrSeO4          -12.66    -17.06   -4.40  SrSeO4
  Starkeyite       -5.56     -6.56   -1.00  MgSO4:4H2O
  Strontianite      1.35      1.03   -0.32  SrCO3
  Sylvite          -4.34     -3.55    0.79  KCl
  Syngenite        -7.92    -15.52   -7.60  K2Ca(SO4)2:H2O
  Tachyhydrite    -30.57    -13.43   17.14  Mg2CaCl6:12H2O
  Thenardite       -4.78     -5.13   -0.35  Na2SO4
  Thermonatrite    -6.83      4.17   11.00  Na2CO3:H2O
  Todorokite      -46.99    -92.82  -45.82  Mn7O12:3H2O
  Trona-K         -14.17     -2.58   11.59  K2NaH(CO3)2:2H2O
  Witherite         3.60      0.55   -3.05  BaCO3
  Wustite          -5.34      7.31   12.65  Fe.947O

**For a gas, SI = log10(fugacity). Fugacity = pressure * phi / 1 atm.
  For ideal gases, phi = 1.

------------------
End of simulation.
------------------

------------------------------------
Reading input data for simulation 3.
------------------------------------

	SOLUTION 4 Coalinga
	    temp      21
	    pH        7.52
	    pe        4
	    redox     pe
	    units     ppm
	    density   1
	    As        19.9 ppb        N(-03)/N(5)
	    B         59
	    Ba        0.35
	    Br        9.9
	    C(4)      854
	    Ca        47
	    Cl        1800
	    Fe        0.125
	    K         51
	    Li        0.75
	    Mg        35
	    Mn        110 ppb
	    N(-03)    21.84
	    N(5)      4.43
	    Na        1700
	    S(6)      620
	    Se        22 ppb
	    Sr        1.8
	    Alkalinity 710
	    water    1 # kg
	END
-------------------------------------------
Beginning of initial solution calculations.
-------------------------------------------

Initial solution 4.	Coalinga


pH will be adjusted to obtain desired alkalinity.

-----------------------------Solution composition------------------------------

	Elements           Molality       Moles

	Alkalinity        1.427e-02   1.427e-02
	As                2.672e-07   2.672e-07
	B                 5.490e-03   5.490e-03
	Ba                2.564e-06   2.564e-06
	Br                1.246e-04   1.246e-04
	C(4)              1.408e-02   1.408e-02
	Ca                1.180e-03   1.180e-03
	Cl                5.107e-02   5.107e-02
	Fe                2.252e-06   2.252e-06
	K                 1.312e-03   1.312e-03
	Li                1.087e-04   1.087e-04
	Mg                1.449e-03   1.449e-03
	Mn                2.014e-06   2.014e-06
	N(-03)            1.569e-03   1.569e-03
	N(5)              3.182e-04   3.182e-04
	Na                7.439e-02   7.439e-02
	S(6)              6.494e-03   6.494e-03
	Se                2.803e-07   2.803e-07
	Sr                2.067e-05   2.067e-05

----------------------------Description of solution----------------------------

                                       pH  =   7.930      Adjust alkalinity
                                       pe  =   4.000    
                        Activity of water  =   0.997
                 Ionic strength (mol/kgw)  =   8.433e-02
                       Mass of water (kg)  =   1.000e+00
                       Total CO2 (mol/kg)  =   1.408e-02
                         Temperature (°C)  =  21.00
                  Electrical balance (eq)  =   1.813e-03
 Percent error, 100*(Cat-|An|)/(Cat+|An|)  =   1.18
                               Iterations  =   5
                                  Total H  = 1.110800e+02
                                  Total O  = 5.561047e+01

---------------------------------Redox couples---------------------------------

	Redox couple             pe  Eh (volts)

	N(-03)/N(5)          6.7376      0.3932

----------------------------Distribution of species----------------------------

                                               Log       Log       Log    mole V
   Species          Molality    Activity  Molality  Activity     Gamma   cm³/mol

   OH-             7.714e-07   6.025e-07    -6.113    -6.220    -0.107     (0)  
   H+              1.400e-08   1.175e-08    -7.854    -7.930    -0.076      0.00
   H2O             5.553e+01   9.974e-01     1.744    -0.001     0.000     18.05
As(-3)        0.000e+00
   AsH3            0.000e+00   0.000e+00  -116.555  -116.555     0.000     (0)  
As(3)         6.362e-24
   HAsO2           3.225e-24   3.225e-24   -23.491   -23.491     0.000     (0)  
   As(OH)3         2.820e-24   2.820e-24   -23.550   -23.550     0.000     (0)  
   H2AsO3-         1.600e-25   1.260e-25   -24.796   -24.899    -0.104     (0)  
   AsO2-           1.555e-25   1.226e-25   -24.808   -24.912    -0.104     (0)  
   AsO2OH-2        2.405e-28   9.053e-29   -27.619   -28.043    -0.424     (0)  
As(5)         2.672e-07
   HAsO4-2         2.581e-07   9.718e-08    -6.588    -7.012    -0.424     (0)  
   H2AsO4-         8.874e-09   6.992e-09    -8.052    -8.155    -0.104     (0)  
   AsO4-3          1.740e-10   1.913e-11    -9.759   -10.718    -0.959     (0)  
   H3AsO4          1.392e-14   1.392e-14   -13.856   -13.856     0.000     (0)  
B(-5)         0.000e+00
   BH4-            0.000e+00   0.000e+00  -155.787  -155.890    -0.104     (0)  
B(3)          5.490e-03
   B(OH)3          5.167e-03   5.167e-03    -2.287    -2.287     0.000     (0)  
   BO2-            2.748e-04   2.165e-04    -3.561    -3.664    -0.104     (0)  
   NaB(OH)4        2.647e-05   2.647e-05    -4.577    -4.577     0.000     (0)  
   MgB(OH)4+       1.269e-05   9.996e-06    -4.897    -5.000    -0.104     (0)  
   CaB(OH)4+       8.599e-06   6.775e-06    -5.066    -5.169    -0.104     (0)  
   BaB(OH)4+       8.895e-09   7.009e-09    -8.051    -8.154    -0.104     (0)  
   B2O(OH)5-       5.954e-16   4.691e-16   -15.225   -15.329    -0.104     (0)  
Ba            2.564e-06
   Ba+2            2.521e-06   1.011e-06    -5.598    -5.995    -0.397     (0)  
   BaCl+           1.585e-08   1.249e-08    -7.800    -7.903    -0.104     (0)  
   BaCO3           1.555e-08   1.555e-08    -7.808    -7.808     0.000     (0)  
   BaB(OH)4+       8.895e-09   7.009e-09    -8.051    -8.154    -0.104     (0)  
   BaNO3+          2.504e-09   1.973e-09    -8.601    -8.705    -0.104     (0)  
   BaOH+           3.691e-12   2.908e-12   -11.433   -11.536    -0.104     (0)  
Br(-03)       0.000e+00
   Br3-            0.000e+00   0.000e+00   -40.307   -40.410    -0.104     (0)  
Br(-1)        1.246e-04
   Br-             1.244e-04   9.624e-05    -3.905    -4.017    -0.111     (0)  
   NaBr            2.439e-07   2.439e-07    -6.613    -6.613     0.000     (0)  
   KBr             1.686e-09   1.686e-09    -8.773    -8.773     0.000     (0)  
Br(0)         2.400e-38
   Br2             1.200e-38   1.200e-38   -37.921   -37.921     0.000     (0)  
Br(1)         7.625e-35
   HBrO            5.292e-35   5.292e-35   -34.276   -34.276     0.000     (0)  
   BrO-            2.334e-35   1.839e-35   -34.632   -34.735    -0.104     (0)  
Br(5)         0.000e+00
   BrO3-           0.000e+00   0.000e+00   -80.374   -80.482    -0.107     (0)  
Br(7)         0.000e+00
   BrO4-           0.000e+00   0.000e+00  -116.260  -116.363    -0.104     (0)  
C(4)          1.408e-02
   HCO3-           1.265e-02   9.964e-03    -1.898    -2.002    -0.104     (0)  
   NaHCO3          8.738e-04   8.738e-04    -3.059    -3.059     0.000     (0)  
   CO2             2.816e-04   2.874e-04    -3.550    -3.541     0.009     (0)  
   CO3-2           8.926e-05   3.472e-05    -4.049    -4.459    -0.410     (0)  
   MgHCO3+         7.351e-05   5.792e-05    -4.134    -4.237    -0.104     (0)  
   CaHCO3+         6.069e-05   4.782e-05    -4.217    -4.320    -0.104     (0)  
   CaCO3           2.996e-05   2.996e-05    -4.524    -4.524     0.000     (0)  
   MgCO3           1.759e-05   1.759e-05    -4.755    -4.755     0.000     (0)  
   NaCO3-          9.759e-06   7.689e-06    -5.011    -5.114    -0.104     (0)  
   MnCO3           6.132e-07   6.132e-07    -6.212    -6.212     0.000     (0)  
   SrCO3           1.774e-07   1.774e-07    -6.751    -6.751     0.000     (0)  
   MnHCO3+         4.484e-08   3.533e-08    -7.348    -7.452    -0.104     (0)  
   FeHCO3+         2.679e-08   2.111e-08    -7.572    -7.676    -0.104     (0)  
   BaCO3           1.555e-08   1.555e-08    -7.808    -7.808     0.000     (0)  
   FeCO3           8.619e-09   8.619e-09    -8.065    -8.065     0.000     (0)  
   FeCO3+          1.235e-12   9.731e-13   -11.908   -12.012    -0.104     (0)  
Ca            1.180e-03
   Ca+2            9.629e-04   4.085e-04    -3.016    -3.389    -0.372     (0)  
   CaSO4           1.125e-04   1.125e-04    -3.949    -3.949     0.000     (0)  
   CaHCO3+         6.069e-05   4.782e-05    -4.217    -4.320    -0.104     (0)  
   CaCO3           2.996e-05   2.996e-05    -4.524    -4.524     0.000     (0)  
   CaB(OH)4+       8.599e-06   6.775e-06    -5.066    -5.169    -0.104     (0)  
   CaCl+           4.255e-06   3.352e-06    -5.371    -5.475    -0.104     (0)  
   CaNO3+          6.382e-07   5.029e-07    -6.195    -6.299    -0.104     (0)  
   CaCl2           1.611e-07   1.611e-07    -6.793    -6.793     0.000     (0)  
   CaOH+           6.214e-09   4.896e-09    -8.207    -8.310    -0.104     (0)  
Cl(-1)        5.107e-02
   Cl-             5.067e-02   3.920e-02    -1.295    -1.407    -0.111     (0)  
   NaCl            3.801e-04   3.801e-04    -3.420    -3.420     0.000     (0)  
   MgCl+           1.973e-05   1.554e-05    -4.705    -4.808    -0.104     (0)  
   CaCl+           4.255e-06   3.352e-06    -5.371    -5.475    -0.104     (0)  
   KCl             1.213e-06   1.213e-06    -5.916    -5.916     0.000     (0)  
   SrCl+           1.990e-07   1.568e-07    -6.701    -6.805    -0.104     (0)  
   CaCl2           1.611e-07   1.611e-07    -6.793    -6.793     0.000     (0)  
   LiCl            1.089e-07   1.089e-07    -6.963    -6.963     0.000     (0)  
   MnCl+           4.458e-08   3.513e-08    -7.351    -7.454    -0.104     (0)  
   BaCl+           1.585e-08   1.249e-08    -7.800    -7.903    -0.104     (0)  
   FeCl+           1.437e-10   1.132e-10    -9.842    -9.946    -0.104     (0)  
   HCl             1.030e-10   1.030e-10    -9.987    -9.987     0.000     (0)  
   MnCl3-          1.656e-11   1.305e-11   -10.781   -10.884    -0.104     (0)  
   FeCl2           2.333e-14   2.333e-14   -13.632   -13.632     0.000     (0)  
   FeCl4-2         2.717e-16   1.023e-16   -15.566   -15.990    -0.424     (0)  
   FeCl2+          8.965e-19   7.063e-19   -18.047   -18.151    -0.104     (0)  
   FeCl+2          4.669e-20   1.816e-20   -19.331   -19.741    -0.410     (0)  
   FeCl4-          1.656e-24   1.305e-24   -23.781   -23.884    -0.104     (0)  
Cl(1)         6.998e-37
   ClO-            5.209e-37   4.104e-37   -36.283   -36.387    -0.104     (0)  
   HClO            1.789e-37   1.789e-37   -36.747   -36.747     0.000     (0)  
Cl(3)         0.000e+00
   ClO2-           0.000e+00   0.000e+00   -64.114   -64.217    -0.104     (0)  
   HClO2           0.000e+00   0.000e+00   -68.977   -68.977     0.000     (0)  
Cl(5)         0.000e+00
   ClO3-           0.000e+00   0.000e+00   -77.901   -78.008    -0.107     (0)  
Cl(7)         0.000e+00
   ClO4-           0.000e+00   0.000e+00   -96.023   -96.131    -0.107     (0)  
Fe(2)         4.645e-08
   FeHCO3+         2.679e-08   2.111e-08    -7.572    -7.676    -0.104     (0)  
   Fe+2            9.515e-09   4.036e-09    -8.022    -8.394    -0.372     (0)  
   FeCO3           8.619e-09   8.619e-09    -8.065    -8.065     0.000     (0)  
   FeSO4           1.249e-09   1.249e-09    -8.903    -8.903     0.000     (0)  
   FeCl+           1.437e-10   1.132e-10    -9.842    -9.946    -0.104     (0)  
   FeOH+           1.375e-10   1.083e-10    -9.862    -9.965    -0.104     (0)  
   Fe(OH)2         7.301e-14   7.301e-14   -13.137   -13.137     0.000     (0)  
   FeCl2           2.333e-14   2.333e-14   -13.632   -13.632     0.000     (0)  
   Fe(OH)3-        3.130e-16   2.466e-16   -15.504   -15.608    -0.104     (0)  
   FeCl4-2         2.717e-16   1.023e-16   -15.566   -15.990    -0.424     (0)  
   Fe(OH)4-2       5.560e-23   2.093e-23   -22.255   -22.679    -0.424     (0)  
Fe(3)         2.205e-06
   Fe(OH)3         2.082e-06   2.082e-06    -5.681    -5.681     0.000     (0)  
   Fe(OH)2+        6.658e-08   5.246e-08    -7.177    -7.280    -0.104     (0)  
   Fe(OH)4-        5.633e-08   4.438e-08    -7.249    -7.353    -0.104     (0)  
   FeOH+2          4.799e-12   1.867e-12   -11.319   -11.729    -0.410     (0)  
   FeCO3+          1.235e-12   9.731e-13   -11.908   -12.012    -0.104     (0)  
   Fe+3            1.756e-17   3.408e-18   -16.756   -17.468    -0.712     (0)  
   FeCl2+          8.965e-19   7.063e-19   -18.047   -18.151    -0.104     (0)  
   FeSO4+          7.014e-19   5.526e-19   -18.154   -18.258    -0.104     (0)  
   FeCl+2          4.669e-20   1.816e-20   -19.331   -19.741    -0.410     (0)  
   Fe(SO4)2-       2.699e-20   2.126e-20   -19.569   -19.672    -0.104     (0)  
   FeNO3+2         2.152e-20   8.370e-21   -19.667   -20.077    -0.410     (0)  
   Fe2(OH)2+4      3.305e-21   9.381e-23   -20.481   -22.028    -1.547     (0)  
   FeCl4-          1.656e-24   1.305e-24   -23.781   -23.884    -0.104     (0)  
   Fe3(OH)4+5      2.278e-25   1.028e-27   -24.642   -26.988    -2.346     (0)  
H(0)          1.775e-27
   H2              8.876e-28   9.059e-28   -27.052   -27.043     0.009     (0)  
K             1.312e-03
   K+              1.291e-03   9.991e-04    -2.889    -3.000    -0.111     (0)  
   KSO4-           1.964e-05   1.547e-05    -4.707    -4.810    -0.104     (0)  
   KCl             1.213e-06   1.213e-06    -5.916    -5.916     0.000     (0)  
   KBr             1.686e-09   1.686e-09    -8.773    -8.773     0.000     (0)  
   KOH             2.940e-10   2.940e-10    -9.532    -9.532     0.000     (0)  
   KHSO4           1.384e-13   1.384e-13   -12.859   -12.859     0.000     (0)  
Li            1.087e-04
   Li+             1.073e-04   8.712e-05    -3.969    -4.060    -0.091     (0)  
   LiSO4-          1.272e-06   1.002e-06    -5.896    -5.999    -0.104     (0)  
   LiCl            1.089e-07   1.089e-07    -6.963    -6.963     0.000     (0)  
   LiOH            1.694e-10   1.694e-10    -9.771    -9.771     0.000     (0)  
Mg            1.449e-03
   Mg+2            1.087e-03   5.065e-04    -2.964    -3.295    -0.332     (0)  
   MgSO4           2.378e-04   2.378e-04    -3.624    -3.624     0.000     (0)  
   MgHCO3+         7.351e-05   5.792e-05    -4.134    -4.237    -0.104     (0)  
   MgCl+           1.973e-05   1.554e-05    -4.705    -4.808    -0.104     (0)  
   MgCO3           1.759e-05   1.759e-05    -4.755    -4.755     0.000     (0)  
   MgB(OH)4+       1.269e-05   9.996e-06    -4.897    -5.000    -0.104     (0)  
   Mg4(OH)4+4      2.138e-20   6.069e-22   -19.670   -21.217    -1.547     (0)  
Mn(2)         2.014e-06
   Mn+2            1.098e-06   4.657e-07    -5.959    -6.332    -0.372     (0)  
   MnCO3           6.132e-07   6.132e-07    -6.212    -6.212     0.000     (0)  
   MnSO4           2.122e-07   2.122e-07    -6.673    -6.673     0.000     (0)  
   MnHCO3+         4.484e-08   3.533e-08    -7.348    -7.452    -0.104     (0)  
   MnCl+           4.458e-08   3.513e-08    -7.351    -7.454    -0.104     (0)  
   MnOH+           1.289e-09   1.016e-09    -8.890    -8.993    -0.104     (0)  
   MnNO3+          2.301e-10   1.813e-10    -9.638    -9.742    -0.104     (0)  
   MnCl3-          1.656e-11   1.305e-11   -10.781   -10.884    -0.104     (0)  
   Mn2(OH)3+       2.118e-13   1.668e-13   -12.674   -12.778    -0.104     (0)  
   Mn(OH)2         2.116e-13   2.116e-13   -12.674   -12.674     0.000     (0)  
   Mn(NO3)2        1.119e-13   1.119e-13   -12.951   -12.951     0.000     (0)  
   Mn2OH+3         3.997e-15   5.069e-16   -14.398   -15.295    -0.897     (0)  
   MnSeO4          3.475e-17   3.475e-17   -16.459   -16.459     0.000     (0)  
   Mn(OH)3-        2.138e-17   1.684e-17   -16.670   -16.774    -0.104     (0)  
   Mn(OH)4-2       3.215e-23   1.210e-23   -22.493   -22.917    -0.424     (0)  
Mn(3)         7.241e-28
   Mn+3            7.241e-28   9.184e-29   -27.140   -28.037    -0.897     (0)  
Mn(6)         0.000e+00
   MnO4-2          0.000e+00   0.000e+00   -46.425   -46.849    -0.424     (0)  
Mn(7)         0.000e+00
   MnO4-           0.000e+00   0.000e+00   -52.321   -52.428    -0.107     (0)  
N(-03)        1.569e-03
   N3-             5.226e-04   4.118e-04    -3.282    -3.385    -0.104     (0)  
   HN3             2.649e-07   2.649e-07    -6.577    -6.577     0.000     (0)  
N(5)          3.182e-04
   NO3-            3.175e-04   2.456e-04    -3.498    -3.610    -0.111     (0)  
   CaNO3+          6.382e-07   5.029e-07    -6.195    -6.299    -0.104     (0)  
   SrNO3+          1.384e-08   1.090e-08    -7.859    -7.962    -0.104     (0)  
   BaNO3+          2.504e-09   1.973e-09    -8.601    -8.705    -0.104     (0)  
   MnNO3+          2.301e-10   1.813e-10    -9.638    -9.742    -0.104     (0)  
   HNO3            1.373e-13   1.373e-13   -12.862   -12.862     0.000     (0)  
   Mn(NO3)2        1.119e-13   1.119e-13   -12.951   -12.951     0.000     (0)  
   FeNO3+2         2.152e-20   8.370e-21   -19.667   -20.077    -0.410     (0)  
Na            7.439e-02
   Na+             7.216e-02   5.686e-02    -1.142    -1.245    -0.104     (0)  
   NaSO4-          9.313e-04   7.338e-04    -3.031    -3.134    -0.104     (0)  
   NaHCO3          8.738e-04   8.738e-04    -3.059    -3.059     0.000     (0)  
   NaCl            3.801e-04   3.801e-04    -3.420    -3.420     0.000     (0)  
   NaB(OH)4        2.647e-05   2.647e-05    -4.577    -4.577     0.000     (0)  
   NaCO3-          9.759e-06   7.689e-06    -5.011    -5.114    -0.104     (0)  
   NaBr            2.439e-07   2.439e-07    -6.613    -6.613     0.000     (0)  
   NaOH            5.961e-09   5.961e-09    -8.225    -8.225     0.000     (0)  
O(0)          7.371e-40
   O2              3.685e-40   3.761e-40   -39.434   -39.425     0.009     (0)  
S(6)          6.494e-03
   SO4-2           5.189e-03   1.953e-03    -2.285    -2.709    -0.424     (0)  
   NaSO4-          9.313e-04   7.338e-04    -3.031    -3.134    -0.104     (0)  
   MgSO4           2.378e-04   2.378e-04    -3.624    -3.624     0.000     (0)  
   CaSO4           1.125e-04   1.125e-04    -3.949    -3.949     0.000     (0)  
   KSO4-           1.964e-05   1.547e-05    -4.707    -4.810    -0.104     (0)  
   SrSO4           2.741e-06   2.741e-06    -5.562    -5.562     0.000     (0)  
   LiSO4-          1.272e-06   1.002e-06    -5.896    -5.999    -0.104     (0)  
   MnSO4           2.122e-07   2.122e-07    -6.673    -6.673     0.000     (0)  
   HSO4-           2.629e-09   2.071e-09    -8.580    -8.684    -0.104     (0)  
   FeSO4           1.249e-09   1.249e-09    -8.903    -8.903     0.000     (0)  
   KHSO4           1.384e-13   1.384e-13   -12.859   -12.859     0.000     (0)  
   FeSO4+          7.014e-19   5.526e-19   -18.154   -18.258    -0.104     (0)  
   Fe(SO4)2-       2.699e-20   2.126e-20   -19.569   -19.672    -0.104     (0)  
   H2SO4           2.571e-20   2.571e-20   -19.590   -19.590     0.000     (0)  
Se(-2)        1.857e-34
   HSe-            1.857e-34   1.463e-34   -33.731   -33.835    -0.104     (0)  
[...]
   Fe(OH)2         6.361e-13   6.361e-13   -12.196   -12.196     0.000     (0)  
   FeCl4-2         3.515e-13   9.065e-14   -12.454   -13.043    -0.589     (0)  
   Fe(OH)3-        3.848e-15   2.786e-15   -14.415   -14.555    -0.140     (0)  
   Fe(OH)4-2       1.189e-21   3.065e-22   -20.925   -21.514    -0.589     (0)  
Fe(3)         2.845e-05
   Fe(OH)3         2.671e-05   2.671e-05    -4.573    -4.573     0.000     (0)  
   Fe(OH)4-        1.019e-06   7.382e-07    -5.992    -6.132    -0.140     (0)  
   Fe(OH)2+        7.169e-07   5.191e-07    -6.145    -6.285    -0.140     (0)  
   FeOH+2          5.187e-11   1.425e-11   -10.285   -10.846    -0.561     (0)  
   FeCO3+          1.547e-11   1.120e-11   -10.810   -10.951    -0.140     (0)  
   Fe+3            1.591e-16   2.006e-17   -15.798   -16.698    -0.899     (0)  
   FeCl2+          7.319e-17   5.299e-17   -16.136   -16.276    -0.140     (0)  
   FeCl+2          1.703e-18   4.678e-19   -17.769   -18.330    -0.561     (0)  
   Fe2(OH)2+4      6.582e-19   5.465e-21   -18.182   -20.262    -2.081     (0)  
   FeSO4+          4.133e-19   2.993e-19   -18.384   -18.524    -0.140     (0)  
   FeNO3+2         6.675e-21   1.834e-21   -20.176   -20.737    -0.561     (0)  
   FeCl4-          1.723e-21   1.248e-21   -20.764   -20.904    -0.140     (0)  
   Fe(SO4)2-       1.078e-21   7.802e-22   -20.968   -21.108    -0.140     (0)  
   Fe3(OH)4+5      7.900e-22   5.927e-25   -21.102   -24.227    -3.125     (0)  
H(0)          1.224e-27
   H2              6.120e-28   6.456e-28   -27.213   -27.190     0.023     (0)  
K             1.758e-03
   K+              1.750e-03   1.222e-03    -2.757    -2.913    -0.156     (0)  
   KCl             5.742e-06   5.742e-06    -5.241    -5.241     0.000     (0)  
   KSO4-           2.100e-06   1.521e-06    -5.678    -5.818    -0.140     (0)  
   KBr             9.858e-09   9.858e-09    -8.006    -8.006     0.000     (0)  
   KOH             4.661e-10   4.661e-10    -9.332    -9.332     0.000     (0)  
   KHSO4           1.210e-14   1.210e-14   -13.917   -13.917     0.000     (0)  
Li            5.270e-04
   Li+             5.247e-04   4.016e-04    -3.280    -3.396    -0.116     (0)  
   LiCl            1.844e-06   1.844e-06    -5.734    -5.734     0.000     (0)  
   LiSO4-          5.036e-07   3.646e-07    -6.298    -6.438    -0.140     (0)  
   LiOH            1.012e-09   1.012e-09    -8.995    -8.995     0.000     (0)  
Mg            1.909e-03
   Mg+2            1.537e-03   5.808e-04    -2.813    -3.236    -0.423     (0)  
   MgHCO3+         1.832e-04   1.326e-04    -3.737    -3.877    -0.140     (0)  
   MgCl+           8.763e-05   6.345e-05    -4.057    -4.198    -0.140     (0)  
   MgCO3           5.942e-05   5.942e-05    -4.226    -4.226     0.000     (0)  
   MgSO4           2.392e-05   2.392e-05    -4.621    -4.621     0.000     (0)  
   MgB(OH)4+       1.757e-05   1.273e-05    -4.755    -4.895    -0.140     (0)  
   Mg4(OH)4+4      3.570e-19   2.964e-21   -18.447   -20.528    -2.081     (0)  
Mn(2)         3.422e-06
   MnCO3           1.619e-06   1.619e-06    -5.791    -5.791     0.000     (0)  
   Mn+2            1.486e-06   4.783e-07    -5.828    -6.320    -0.492     (0)  
   MnCl+           1.968e-07   1.425e-07    -6.706    -6.846    -0.140     (0)  
   MnHCO3+         9.890e-08   7.161e-08    -7.005    -7.145    -0.140     (0)  
   MnSO4           1.820e-08   1.820e-08    -7.740    -7.740     0.000     (0)  
   MnOH+           1.868e-09   1.353e-09    -8.729    -8.869    -0.140     (0)  
   MnCl3-          8.421e-10   6.098e-10    -9.075    -9.215    -0.140     (0)  
   MnNO3+          9.570e-12   6.929e-12   -11.019   -11.159    -0.140     (0)  
   Mn2(OH)3+       5.297e-13   3.835e-13   -12.276   -12.416    -0.140     (0)  
   Mn(OH)2         3.653e-13   3.653e-13   -12.437   -12.437     0.000     (0)  
   Mn2OH+3         1.145e-14   6.932e-16   -13.941   -15.159    -1.218     (0)  
   MnSeO4          3.013e-16   3.013e-16   -15.521   -15.521     0.000     (0)  
   Mn(NO3)2        1.591e-16   1.591e-16   -15.798   -15.798     0.000     (0)  
   Mn(OH)3-        5.206e-17   3.770e-17   -16.283   -16.424    -0.140     (0)  
   Mn(OH)4-2       1.362e-22   3.512e-23   -21.866   -22.454    -0.589     (0)  
Mn(3)         2.107e-27
   Mn+3            2.107e-27   1.276e-28   -26.676   -27.894    -1.218     (0)  
Mn(6)         0.000e+00
   MnO4-2          0.000e+00   0.000e+00   -43.834   -44.422    -0.589     (0)  
Mn(7)         0.000e+00
   MnO4-           0.000e+00   0.000e+00   -49.631   -49.778    -0.148     (0)  
N(-03)        5.937e-03
   N3-             1.978e-03   1.433e-03    -2.704    -2.844    -0.140     (0)  
   HN3             6.512e-07   6.512e-07    -6.186    -6.186     0.000     (0)  
N(5)          1.313e-05
   NO3-            1.309e-05   9.141e-06    -4.883    -5.039    -0.156     (0)  
   CaNO3+          3.405e-08   2.465e-08    -7.468    -7.608    -0.140     (0)  
   SrNO3+          1.983e-09   1.436e-09    -8.703    -8.843    -0.140     (0)  
   BaNO3+          6.045e-10   4.377e-10    -9.219    -9.359    -0.140     (0)  
   MnNO3+          9.570e-12   6.929e-12   -11.019   -11.159    -0.140     (0)  
   HNO3            4.312e-15   4.312e-15   -14.365   -14.365     0.000     (0)  
   Mn(NO3)2        1.591e-16   1.591e-16   -15.798   -15.798     0.000     (0)  
   FeNO3+2         6.675e-21   1.834e-21   -20.176   -20.737    -0.561     (0)  
Na            2.080e-01
   Na+             2.000e-01   1.448e-01    -0.699    -0.839    -0.140     (0)  
   NaHCO3          4.073e-03   4.073e-03    -2.390    -2.390     0.000     (0)  
   NaCl            3.561e-03   3.561e-03    -2.448    -2.448     0.000     (0)  
   NaSO4-          2.037e-04   1.475e-04    -3.691    -3.831    -0.140     (0)  
   NaB(OH)4        7.484e-05   7.484e-05    -4.126    -4.126     0.000     (0)  
   NaCO3-          6.767e-05   4.900e-05    -4.170    -4.310    -0.140     (0)  
   NaBr            2.870e-06   2.870e-06    -5.542    -5.542     0.000     (0)  
   NaOH            2.648e-08   2.648e-08    -7.577    -7.577     0.000     (0)  
O(0)          2.853e-38
   O2              1.426e-38   1.505e-38   -37.846   -37.823     0.023     (0)  
S(6)          8.411e-04
   SO4-2           5.980e-04   1.542e-04    -3.223    -3.812    -0.589     (0)  
   NaSO4-          2.037e-04   1.475e-04    -3.691    -3.831    -0.140     (0)  
   MgSO4           2.392e-05   2.392e-05    -4.621    -4.621     0.000     (0)  
   CaSO4           1.212e-05   1.212e-05    -4.916    -4.916     0.000     (0)  
   KSO4-           2.100e-06   1.521e-06    -5.678    -5.818    -0.140     (0)  
   SrSO4           7.661e-07   7.661e-07    -6.116    -6.116     0.000     (0)  
   LiSO4-          5.036e-07   3.646e-07    -6.298    -6.438    -0.140     (0)  
   MnSO4           1.820e-08   1.820e-08    -7.740    -7.740     0.000     (0)  
   FeSO4           5.113e-10   5.113e-10    -9.291    -9.291     0.000     (0)  
   HSO4-           1.940e-10   1.405e-10    -9.712    -9.852    -0.140     (0)  
   KHSO4           1.210e-14   1.210e-14   -13.917   -13.917     0.000     (0)  
   FeSO4+          4.133e-19   2.993e-19   -18.384   -18.524    -0.140     (0)  
   H2SO4           1.196e-21   1.196e-21   -20.922   -20.922     0.000     (0)  
   Fe(SO4)2-       1.078e-21   7.802e-22   -20.968   -21.108    -0.140     (0)  
Se(-2)        2.085e-35
   HSe-            2.085e-35   1.510e-35   -34.681   -34.821    -0.140     (0)  
   H2Se            9.030e-40   9.030e-40   -39.044   -39.044     0.000     (0)  
   Se-2            0.000e+00   0.000e+00   -41.134   -41.723    -0.589     (0)  
Se(4)         8.236e-07
   SeO3-2          7.726e-07   1.992e-07    -6.112    -6.701    -0.589     (0)  
   HSeO3-          5.101e-08   3.693e-08    -7.292    -7.433    -0.140     (0)  
   H2SeO3          1.266e-13   1.266e-13   -12.898   -12.898     0.000     (0)  
Se(6)         9.075e-12
   SeO4-2          9.074e-12   2.340e-12   -11.042   -11.631    -0.589     (0)  
   MnSeO4          3.013e-16   3.013e-16   -15.521   -15.521     0.000     (0)  
   HSeO4-          2.479e-18   1.795e-18   -17.606   -17.746    -0.140     (0)  
Sr            9.115e-05
   Sr+2            8.558e-05   2.490e-05    -4.068    -4.604    -0.536     (0)  
   SrCl+           2.858e-06   2.070e-06    -5.544    -5.684    -0.140     (0)  
   SrCO3           1.948e-06   1.948e-06    -5.710    -5.710     0.000     (0)  
   SrSO4           7.661e-07   7.661e-07    -6.116    -6.116     0.000     (0)  
   SrNO3+          1.983e-09   1.436e-09    -8.703    -8.843    -0.140     (0)  
   SrOH+           1.940e-10   1.405e-10    -9.712    -9.852    -0.140     (0)  

------------------------------Saturation indices-------------------------------

  Phase               SI** log IAP   log K(298 K,   1 atm)

  Alstonite         1.60      4.19    2.58  BaCa(CO3)2
  Anhydrite        -2.73     -7.08   -4.35  CaSO4
  Antarcticite     -9.09     -5.00    4.09  CaCl2:6H2O
  Aphthitalite    -13.31    -17.20   -3.89  NaK3(SO4)2
  Aragonite         1.10      3.07    1.97  CaCO3
  Arcanite         -7.79     -9.64   -1.84  K2SO4
  Arsenolite      -44.42    -64.26  -19.84  As2O3
  Artinite         -3.69     15.94   19.63  Mg2CO3(OH)2:3H2O
  As              -46.45     -3.76   42.68  As
  As2O5           -34.74    -32.60    2.14  As2O5
  As4O6(cubi)     -88.70   -128.52  -39.82  As4O6
  As4O6(mono)     -88.47   -128.52  -40.05  As4O6
  B               -83.54     26.02  109.56  B
  B(g)           -174.82     26.02  200.84  B
  B2O3            -10.25     -4.70    5.55  B2O3
  Ba             -111.45     29.78  141.23  Ba
  Ba(OH)2:8H2O    -13.65     10.84   24.49  Ba(OH)2:8H2O
  BaBr2           -17.54    -11.96    5.58  BaBr2
  BaBr2:2H2O      -14.21    -11.97    2.24  BaBr2:2H2O
  BaCl2            -9.16     -6.93    2.23  BaCl2
  BaCl2:2H2O       -7.14     -6.93    0.21  BaCl2:2H2O
  BaCl2:H2O        -7.76     -6.93    0.82  BaCl2:H2O
  BaMnO4          -39.55    -49.64  -10.09  BaMnO4
  BaO             -36.93     10.87   47.80  BaO
  Barite            0.98     -9.03  -10.01  BaSO4
  Barytocalcite     1.45      4.19    2.74  BaCa(CO3)2
  BaSeO3           -5.35    -11.92   -6.57  BaSeO3
  BaSeO4           -9.39    -16.85   -7.46  BaSeO4
  Bassanite        -3.38     -7.08   -3.71  CaSO4:0.5H2O
  Birnessite      -47.17   -132.71  -85.55  Mn8O14:5H2O
  Bischofite       -9.36     -4.96    4.39  MgCl2:6H2O
  Bixbyite         -6.57     -7.53   -0.96  Mn2O3
  Bloedite        -10.07    -12.55   -2.48  Na2Mg(SO4)2:4H2O
  Borax            -7.06      4.98   12.04  Na2(B4O5(OH)4):8H2O
  Boric_acid       -2.20     -2.35   -0.16  B(OH)3
  Br2(g)          -35.74    -41.74   -6.00  Br2
  Br2(l)          -35.17    -41.74   -6.57  Br2
  Brucite          -3.44     12.85   16.28  Mg(OH)2
  Burkeite        -15.81     -6.32    9.49  Na6CO3(SO4)2
  C               -36.07     28.07   64.15  C
  C(g)           -153.69     28.07  181.77  C
  Ca             -108.10     31.73  139.83  Ca
  Ca(g)          -133.34     31.73  165.07  Ca
  Ca2Cl2(OH)2:H2O -18.46      7.83   26.29  Ca2Cl2(OH)2:H2O
  Ca3(AsO4)2      -11.95      5.85   17.80  Ca3(AsO4)2
  Ca4Cl2(OH)6:13H2O -34.91     33.42   68.33  Ca4Cl2(OH)6:13H2O
  Calcite           1.24      3.07    1.82  CaCO3
  Carnallite      -13.00     -8.73    4.27  KMgCl3:6H2O
  CaSeO3:2H2O      -5.34     -9.98   -4.63  CaSeO3:2H2O
  CaSeO4          -11.81    -14.90   -3.09  CaSeO4
  CaSO4:0.5H2O(beta)  -3.55     -7.08   -3.54  CaSO4:0.5H2O
  Celestite        -2.69     -8.42   -5.72  SrSO4
  Chloromagnesite -26.76     -4.94   21.82  MgCl2
  Cl2(g)          -39.70    -36.71    2.99  Cl2
  Claudetite      -44.47    -64.26  -19.80  As2O3
  CO2(g)           -1.92     -9.75   -7.83  CO2
  Colemanite       -9.99     11.52   21.51  Ca2B6O11:5H2O
  Dolomite          3.70      6.17    2.47  CaMg(CO3)2
  Dolomite-dis      2.16      6.17    4.01  CaMg(CO3)2
  Dolomite-ord      3.71      6.17    2.46  CaMg(CO3)2
  Downeyite       -16.00    -22.79   -6.79  SeO2
  Epsomite         -5.11     -7.07   -1.96  MgSO4:7H2O
  Fe              -31.70     27.32   59.02  Fe
  Fe(OH)2          -5.49      8.40   13.89  Fe(OH)2
  Fe(OH)3           1.79      7.43    5.64  Fe(OH)3
  Fe2(SO4)3       -47.88    -44.83    3.05  Fe2(SO4)3
  FeO              -5.12      8.41   13.52  FeO
  Ferrite-Ca        6.19     27.68   21.50  CaFe2O4
  Ferrite-Dicalcium -16.30     40.50   56.80  Ca2Fe2O5
  Ferrite-Mg        6.69     27.71   21.02  MgFe2O4
  Ferroselite     -36.82   -117.64  -80.82  FeSe2
  FeSO4           -14.10    -11.49    2.61  FeSO4
  Gaylussite       -3.45      7.71   11.16  CaNa2(CO3)2:5H2O
  Glauberite       -7.10    -12.57   -5.47  Na2Ca(SO4)2
  Goethite          6.90      7.43    0.53  FeOOH
  Gypsum           -2.56     -7.09   -4.53  CaSO4:2H2O
  H2(g)           -24.09    -27.19   -3.10  H2
  H2O(g)           -1.59     -0.00    1.59  H2O
  Halite           -3.26     -1.69    1.56  NaCl
  Hausmannite      -7.91      2.24   10.14  Mn3O4
  HBr(g)          -20.29    -11.42    8.88  HBr
  HCl(g)          -15.20     -8.90    6.30  HCl
  Hematite         14.79     14.86    0.08  Fe2O3
  Hexahydrite      -5.34     -7.07   -1.73  MgSO4:6H2O
  Huntite           2.16     12.38   10.22  CaMg3(CO3)4
  Hydroboracite    -8.81     11.55   20.36  MgCaB6O11:6H2O
  Hydromagnesite   -5.50     25.24   30.74  Mg5(CO3)4(OH)2:4H2O
  Hydrophilite    -16.72     -4.98   11.75  CaCl2
  Ice              -0.14     -0.00    0.14  H2O
  Jarosite         -2.97    -12.38   -9.41  KFe3(SO4)2(OH)6
  Jarosite-Na      -4.86    -10.31   -5.45  NaFe3(SO4)2(OH)6
  K               -56.39     14.59   70.98  K
  K(g)            -66.99     14.59   81.58  K
  K2CO3:1.5H2O    -12.87      0.51   13.38  K2CO3:1.5H2O
  K2O             -73.78     10.26   84.04  K2O
  K2Se            -58.84    -47.55   11.29  K2Se
  K3H(SO4)2       -20.78    -24.41   -3.62  K3H(SO4)2
  K8H4(CO3)6:3H2O -45.17    -17.46   27.71  K8H4(CO3)6:3H2O
  Kainite         -10.51    -10.82   -0.31  KMgClSO4:3H2O
  Kalicinite       -4.90     -4.62    0.28  KHCO3
  KBr              -7.34     -6.29    1.05  KBr
  Kieserite        -6.78     -7.05   -0.27  MgSO4:H2O
  KMgCl3          -29.96     -8.71   21.25  KMgCl3
  KMgCl3:2H2O     -22.68     -8.72   13.96  KMgCl3:2H2O
  KNaCO3:6H2O      -7.69      2.57   10.26  KNaCO3:6H2O
  Lansfordite      -1.76      3.09    4.84  MgCO3:5H2O
  Lawrencite      -18.44     -9.39    9.05  FeCl2
  Leonite         -12.59    -16.70   -4.11  K2Mg(SO4)2:4H2O
  Li              -58.66     14.10   72.76  Li
  Li(g)           -80.84     14.10   94.94  Li
  Li2Se           -59.58     43.24  102.82  Li2Se
  Lime            -19.75     12.82   32.57  CaO
  Magnesite         0.83      3.10    2.27  MgCO3
  Magnetite        12.85     23.27   10.42  Fe3O4
  Manganite        -3.60     -3.77   -0.16  MnO(OH)
  Manganosite      -8.15      9.77   17.92  MnO
  Melanterite      -9.12    -11.51   -2.40  FeSO4:7H2O
  Mercallite      -13.33    -14.77   -1.44  KHSO4
  Mg              -90.76     31.76  122.52  Mg
  Mg(g)          -110.48     31.76  142.25  Mg
  Mg1.25SO4(OH)0.5:0.5H2O  -9.03     -3.84    5.20  Mg1.25SO4(OH)0.5:0.5H2O
  Mg1.5SO4(OH)     -9.83     -0.62    9.21  Mg1.5SO4(OH)
  MgBr2           -38.47     -9.98   28.49  MgBr2
  MgBr2:6H2O      -15.15    -10.00    5.15  MgBr2:6H2O
  MgCl2:2H2O      -17.68     -4.95   12.73  MgCl2:2H2O
  MgCl2:4H2O      -12.26     -4.96    7.30  MgCl2:4H2O
  MgCl2:H2O       -21.02     -4.95   16.07  MgCl2:H2O
  MgOHCl          -11.94      3.95   15.89  MgOHCl
  MgSeO3          -11.61     -9.94    1.67  MgSeO3
  MgSeO3:6H2O      -6.52     -9.96   -3.44  MgSeO3:6H2O
  MgSO4           -11.88     -7.05    4.83  MgSO4
  Mirabilite       -4.37     -5.52   -1.15  Na2SO4:10H2O
  Misenite        -87.18    -98.26  -11.08  K8H6(SO4)7
  Mn              -54.26     28.68   82.93  Mn
  Mn(OH)2(am)      -5.55      9.76   15.31  Mn(OH)2
  Mn(OH)3         -10.11     -3.77    6.34  Mn(OH)3
  MnCl2:2H2O      -12.03     -8.04    4.00  MnCl2:2H2O
  MnCl2:4H2O      -10.79     -8.04    2.75  MnCl2:4H2O
  MnCl2:H2O       -13.57     -8.03    5.54  MnCl2:H2O
  MnO2(gamma)      -9.25    -25.37  -16.13  MnO2
  MnSe            -37.35    -48.04  -10.70  MnSe
  MnSeO3           -5.75    -13.02   -7.27  MnSeO3
  MnSeO3:2H2O      -6.69    -13.03   -6.33  MnSeO3:2H2O
  MnSO4           -12.74    -10.13    2.61  MnSO4
  Molysite        -32.73    -19.26   13.47  FeCl3
  Monohydrocalcite   0.39      3.07    2.68  CaCO3:H2O
  Na              -50.71     16.66   67.37  Na
  Na(g)           -64.20     16.66   80.86  Na
  Na2CO3           -6.50      4.66   11.16  Na2CO3
  Na2CO3:7H2O      -5.30      4.64    9.94  Na2CO3:7H2O
  Na2O            -53.01     14.41   67.42  Na2O
  Na2Se           -55.23    -43.40   11.83  Na2Se
  Na2Se2          -58.77   -120.12  -61.35  Na2Se2
  Na3H(SO4)2      -17.30    -18.19   -0.89  Na3H(SO4)2
  Na4Ca(SO4)3:2H2O -12.17    -18.07   -5.89  Na4Ca(SO4)3:2H2O
  NaBr             -7.16     -4.21    2.95  NaBr
  NaBr:2H2O        -6.32     -4.22    2.10  NaBr:2H2O
  NaFeO2           -5.25     14.64   19.88  NaFeO2
  Nahcolite        -2.40     -2.55   -0.14  NaHCO3
  Natron           -4.96      4.63    9.59  Na2CO3:10H2O
  Nesquehonite     -2.20      3.09    5.29  MgCO3:3H2O
  Niter            -7.73     -7.95   -0.22  KNO3
  Nitrobarite     -12.81    -15.30   -2.49  Ba(NO3)2
  NO2(g)          -11.98     -3.63    8.35  NO2
  O2(g)           -34.93    -37.82   -2.89  O2
  Oxychloride-Mg   -9.05     16.79   25.83  Mg2Cl(OH)3:4H2O
  Pentahydrite     -5.68     -7.06   -1.39  MgSO4:5H2O
  Periclase        -8.47     12.85   21.33  MgO
  Picromerite     -12.27    -16.71   -4.44  K2Mg(SO4)2:6H2O
  Pirssonite       -3.60      7.72   11.32  Na2Ca(CO3)2:2H2O
  Polyhalite      -16.54    -30.85  -14.31  K2MgCa2(SO4)4:2H2O
  Portlandite      -9.73     12.81   22.55  Ca(OH)2
  Pyrolusite       -7.71    -25.37  -17.66  MnO2
  Rhodochrosite     0.24      0.02   -0.22  MnCO3
  Scacchite       -16.77     -8.03    8.74  MnCl2
  Se              -11.06     15.04   26.10  Se
  Se2O5           -59.99    -50.50    9.49  Se2O5
  SeCl4           -72.71    -58.38   14.33  SeCl4
  SeO3            -46.88    -27.72   19.16  SeO3
  Siderite         -1.12     -1.34   -0.22  FeCO3
  Sr             -111.38     30.39  141.77  Sr
  Sr(NO3)2        -15.82    -14.68    1.14  Sr(NO3)2
  Sr(NO3)2:4H2O   -15.38    -14.70    0.69  Sr(NO3)2:4H2O
  Sr(OH)2         -16.04     11.48   27.52  Sr(OH)2
  Sr3(AsO4)2      -18.77      1.85   20.61  Sr3(AsO4)2
  SrBr2           -24.41    -11.35   13.07  SrBr2
  SrBr2:6H2O      -15.00    -11.37    3.63  SrBr2:6H2O
  SrBr2:H2O       -20.91    -11.35    9.56  SrBr2:H2O
  SrCl2           -14.21     -6.31    7.90  SrCl2
  SrCl2:2H2O       -9.61     -6.32    3.29  SrCl2:2H2O
  SrCl2:6H2O       -7.82     -6.33    1.49  SrCl2:6H2O
  SrCl2:H2O       -11.05     -6.32    4.73  SrCl2:H2O
  SrO             -30.40     11.48   41.88  SrO
  SrSeO4          -11.83    -16.23   -4.40  SrSeO4
  Starkeyite       -6.06     -7.06   -1.00  MgSO4:4H2O
  Strontianite      2.08      1.73   -0.34  SrCO3
  Sylvite          -4.59     -3.77    0.83  KCl
  Syngenite        -9.12    -16.72   -7.60  K2Ca(SO4)2:H2O
  Tachyhydrite    -32.05    -14.91   17.14  Mg2CaCl6:12H2O
  Thenardite       -5.13     -5.49   -0.36  Na2SO4
  Thermonatrite    -6.28      4.66   10.94  Na2CO3:H2O
  Todorokite      -37.28    -83.11  -45.82  Mn7O12:3H2O
  Trona-K         -13.63     -2.04   11.59  K2NaH(CO3)2:2H2O
  Witherite         4.13      1.12   -3.02  BaCO3
  Wustite          -4.55      7.86   12.40  Fe.947O

**For a gas, SI = log10(fugacity). Fugacity = pressure * phi / 1 atm.
  For ideal gases, phi = 1.

------------------
End of simulation.
------------------

------------------------------------
Reading input data for simulation 6.
------------------------------------

-------------------------------
End of Run after 0.312 Seconds.
-------------------------------

