   Input file: C:\Users\Rob Rossi\Documents\gittemp\SJV_PWP_AsSe\geochemical_data\PHREEQC\Se_PondSpeciation_20230205.pqi
  Output file: C:\Users\Rob Rossi\Documents\gittemp\SJV_PWP_AsSe\geochemical_data\PHREEQC\Se_PondSpeciation_20230205.pqo
Database file: C:\Program Files (x86)\USGS\Phreeqc Interactive 3.6.2-15100\database\llnl.dat

------------------
Reading data base.
------------------

	LLNL_AQUEOUS_MODEL_PARAMETERS
	NAMED_EXPRESSIONS
	SOLUTION_MASTER_SPECIES
	SOLUTION_SPECIES
	PHASES
	EXCHANGE_MASTER_SPECIES
	EXCHANGE_SPECIES
	SURFACE_MASTER_SPECIES
	SURFACE_SPECIES
	RATES
	END
------------------------------------
Reading input data for simulation 1.
------------------------------------

	DATABASE C:\Program Files (x86)\USGS\Phreeqc Interactive 3.6.2-15100\database\llnl.dat
	SOLUTION 1 Antelope Hills
	    temp      27
	    pH        7.6
	    pe        4
	    redox     pe
	    units     ppm
	    density   1
	    Alkalinity 2200
	    As        13 ppb
	    B         18
	    Ba        1.1
	    C(4)      2562
	    Ca        15
	    Cl        3700
	    Fe        0.18
	    K         30
	    Li        0.515
	    Mg        12
	    Mn        14 ppb
	    Na        3350
	    S(6)      42
	    Se        41.3 ppb
	    Sr        3.2
	    N(5)      4.14205
	    water    1 # kg
	END
-------------------------------------------
Beginning of initial solution calculations.
-------------------------------------------

Initial solution 1.	Antelope Hills


pH will be adjusted to obtain desired alkalinity.

-----------------------------Solution composition------------------------------

	Elements           Molality       Moles

	Alkalinity        4.450e-02   4.450e-02
	As                1.756e-07   1.756e-07
	B                 1.685e-03   1.685e-03
	Ba                8.107e-06   8.107e-06
	C(4)              4.251e-02   4.251e-02
	Ca                3.788e-04   3.788e-04
	Cl                1.056e-01   1.056e-01
	Fe                3.262e-06   3.262e-06
	K                 7.766e-04   7.766e-04
	Li                7.509e-05   7.509e-05
	Mg                4.997e-04   4.997e-04
	Mn                2.579e-07   2.579e-07
	N(5)              2.993e-04   2.993e-04
	Na                1.475e-01   1.475e-01
	S(6)              4.426e-04   4.426e-04
	Se                5.294e-07   5.294e-07
	Sr                3.696e-05   3.696e-05

----------------------------Description of solution----------------------------

                                       pH  =   8.545      Adjust alkalinity
                                       pe  =   4.000    
                        Activity of water  =   0.995
                 Ionic strength (mol/kgw)  =   1.468e-01
                       Mass of water (kg)  =   1.000e+00
                       Total CO2 (mol/kg)  =   4.251e-02
                         Temperature (°C)  =  27.00
                  Electrical balance (eq)  =  -1.131e-03
 Percent error, 100*(Cat-|An|)/(Cat+|An|)  =  -0.39
                               Iterations  =   6
                                  Total H  = 1.110953e+02
                                  Total O  = 5.566013e+01

----------------------------Distribution of species----------------------------

                                               Log       Log       Log    mole V
   Species          Molality    Activity  Molality  Activity     Gamma   cm³/mol

   OH-             5.266e-06   3.900e-06    -5.279    -5.409    -0.130     (0)  
   H+              3.478e-09   2.852e-09    -8.459    -8.545    -0.086      0.00
   H2O             5.553e+01   9.950e-01     1.744    -0.002     0.000     18.08
As(-3)        0.000e+00
   AsH3            0.000e+00   0.000e+00  -101.187  -101.187     0.000     (0)  
As(3)         2.232e-21
   HAsO2           9.322e-22   9.322e-22   -21.031   -21.031     0.000     (0)  
   As(OH)3         8.104e-22   8.104e-22   -21.091   -21.091     0.000     (0)  
   H2AsO3-         2.493e-22   1.871e-22   -21.603   -21.728    -0.125     (0)  
   AsO2-           2.376e-22   1.783e-22   -21.624   -21.749    -0.125     (0)  
   AsO2OH-2        2.259e-24   6.870e-25   -23.646   -24.163    -0.517     (0)  
As(5)         1.756e-07
   HAsO4-2         1.737e-07   5.281e-08    -6.760    -7.277    -0.517     (0)  
   H2AsO4-         1.201e-09   9.012e-10    -8.920    -9.045    -0.125     (0)  
   AsO4-3          7.386e-10   4.984e-11    -9.132   -10.302    -1.171     (0)  
   H3AsO4          4.617e-16   4.617e-16   -15.336   -15.336     0.000     (0)  
B(-5)         0.000e+00
   BH4-            0.000e+00   0.000e+00  -159.175  -159.299    -0.125     (0)  
B(3)          1.685e-03
   B(OH)3          1.290e-03   1.290e-03    -2.890    -2.890     0.000     (0)  
   BO2-            3.388e-04   2.543e-04    -3.470    -3.595    -0.125     (0)  
   NaB(OH)4        5.078e-05   5.078e-05    -4.294    -4.294     0.000     (0)  
   MgB(OH)4+       3.883e-06   2.914e-06    -5.411    -5.536    -0.125     (0)  
   CaB(OH)4+       1.981e-06   1.487e-06    -5.703    -5.828    -0.125     (0)  
   BaB(OH)4+       2.349e-08   1.763e-08    -7.629    -7.754    -0.125     (0)  
   B2O(OH)5-       1.605e-16   1.204e-16   -15.795   -15.919    -0.125     (0)  
Ba            8.107e-06
   Ba+2            7.429e-06   2.479e-06    -5.129    -5.606    -0.477     (0)  
   BaCO3           5.620e-07   5.620e-07    -6.250    -6.250     0.000     (0)  
   BaCl+           8.699e-08   6.528e-08    -7.061    -7.185    -0.125     (0)  
   BaB(OH)4+       2.349e-08   1.763e-08    -7.629    -7.754    -0.125     (0)  
   BaNO3+          5.732e-09   4.301e-09    -8.242    -8.366    -0.125     (0)  
   BaOH+           3.906e-11   2.931e-11   -10.408   -10.533    -0.125     (0)  
C(4)          4.251e-02
   HCO3-           3.647e-02   2.736e-02    -1.438    -1.563    -0.125     (0)  
   NaHCO3          4.009e-03   4.009e-03    -2.397    -2.397     0.000     (0)  
   CO3-2           1.385e-03   4.421e-04    -2.859    -3.354    -0.496     (0)  
   NaCO3-          2.073e-04   1.556e-04    -3.683    -3.808    -0.125     (0)  
   CO2             1.715e-04   1.776e-04    -3.766    -3.751     0.015     (0)  
   CaCO3           9.369e-05   9.369e-05    -4.028    -4.028     0.000     (0)  
   MgCO3           6.916e-05   6.916e-05    -4.160    -4.160     0.000     (0)  
   MgHCO3+         6.139e-05   4.607e-05    -4.212    -4.337    -0.125     (0)  
   CaHCO3+         3.797e-05   2.849e-05    -4.421    -4.545    -0.125     (0)  
   SrCO3           4.031e-06   4.031e-06    -5.395    -5.395     0.000     (0)  
   BaCO3           5.620e-07   5.620e-07    -6.250    -6.250     0.000     (0)  
   MnCO3           2.110e-07   2.110e-07    -6.676    -6.676     0.000     (0)  
   MnHCO3+         3.932e-09   2.951e-09    -8.405    -8.530    -0.125     (0)  
   FeCO3           1.617e-09   1.617e-09    -8.791    -8.791     0.000     (0)  
   FeHCO3+         1.280e-09   9.608e-10    -8.893    -9.017    -0.125     (0)  
   FeCO3+          1.959e-13   1.470e-13   -12.708   -12.833    -0.125     (0)  
Ca            3.788e-04
   Ca+2            2.417e-04   8.736e-05    -3.617    -4.059    -0.442     (0)  
   CaCO3           9.369e-05   9.369e-05    -4.028    -4.028     0.000     (0)  
   CaHCO3+         3.797e-05   2.849e-05    -4.421    -4.545    -0.125     (0)  
   CaB(OH)4+       1.981e-06   1.487e-06    -5.703    -5.828    -0.125     (0)  
   CaCl+           1.890e-06   1.418e-06    -5.724    -5.848    -0.125     (0)  
   CaSO4           1.341e-06   1.341e-06    -5.873    -5.873     0.000     (0)  
   CaNO3+          1.274e-07   9.561e-08    -6.895    -7.019    -0.125     (0)  
   CaCl2           1.244e-07   1.244e-07    -6.905    -6.905     0.000     (0)  
   CaOH+           5.737e-09   4.305e-09    -8.241    -8.366    -0.125     (0)  
Cl(-1)        1.056e-01
   Cl-             1.042e-01   7.604e-02    -0.982    -1.119    -0.137     (0)  
   NaCl            1.442e-03   1.442e-03    -2.841    -2.841     0.000     (0)  
   MgCl+           1.139e-05   8.544e-06    -4.944    -5.068    -0.125     (0)  
   CaCl+           1.890e-06   1.418e-06    -5.724    -5.848    -0.125     (0)  
   KCl             1.502e-06   1.502e-06    -5.823    -5.823     0.000     (0)  
   SrCl+           6.579e-07   4.937e-07    -6.182    -6.307    -0.125     (0)  
   LiCl            1.485e-07   1.485e-07    -6.828    -6.828     0.000     (0)  
   CaCl2           1.244e-07   1.244e-07    -6.905    -6.905     0.000     (0)  
   BaCl+           8.699e-08   6.528e-08    -7.061    -7.185    -0.125     (0)  
   MnCl+           3.215e-09   2.413e-09    -8.493    -8.617    -0.125     (0)  
   HCl             4.879e-11   4.879e-11   -10.312   -10.312     0.000     (0)  
   FeCl+           4.988e-12   3.743e-12   -11.302   -11.427    -0.125     (0)  
   MnCl3-          3.860e-12   2.897e-12   -11.413   -11.538    -0.125     (0)  
   FeCl2           1.544e-15   1.544e-15   -14.811   -14.811     0.000     (0)  
   FeCl4-2         8.565e-17   2.605e-17   -16.067   -16.584    -0.517     (0)  
   FeCl2+          7.093e-20   5.322e-20   -19.149   -19.274    -0.125     (0)  
   FeCl+2          2.995e-21   9.561e-22   -20.524   -21.019    -0.496     (0)  
   FeCl4-          4.931e-25   3.700e-25   -24.307   -24.432    -0.125     (0)  
Cl(1)         2.373e-34
   ClO-            2.198e-34   1.649e-34   -33.658   -33.783    -0.125     (0)  
   HClO            1.745e-35   1.745e-35   -34.758   -34.758     0.000     (0)  
Cl(3)         0.000e+00
   ClO2-           0.000e+00   0.000e+00   -59.237   -59.362    -0.125     (0)  
   HClO2           0.000e+00   0.000e+00   -64.737   -64.737     0.000     (0)  
Cl(5)         0.000e+00
   ClO3-           0.000e+00   0.000e+00   -71.051   -71.181    -0.130     (0)  
Cl(7)         0.000e+00
   ClO4-           0.000e+00   0.000e+00   -87.157   -87.288    -0.130     (0)  
Fe(2)         3.098e-09
   FeCO3           1.617e-09   1.617e-09    -8.791    -8.791     0.000     (0)  
   FeHCO3+         1.280e-09   9.608e-10    -8.893    -9.017    -0.125     (0)  
   Fe+2            1.851e-10   6.691e-11    -9.733   -10.175    -0.442     (0)  
   FeOH+           9.836e-12   7.381e-12   -11.007   -11.132    -0.125     (0)  
   FeCl+           4.988e-12   3.743e-12   -11.302   -11.427    -0.125     (0)  
   FeSO4           1.095e-12   1.095e-12   -11.961   -11.961     0.000     (0)  
   Fe(OH)2         2.045e-14   2.045e-14   -13.689   -13.689     0.000     (0)  
   FeCl2           1.544e-15   1.544e-15   -14.811   -14.811     0.000     (0)  
   Fe(OH)3-        3.785e-16   2.841e-16   -15.422   -15.547    -0.125     (0)  
   FeCl4-2         8.565e-17   2.605e-17   -16.067   -16.584    -0.517     (0)  
   Fe(OH)4-2       3.259e-22   9.909e-23   -21.487   -22.004    -0.517     (0)  
Fe(3)         3.259e-06
   Fe(OH)3         2.897e-06   2.897e-06    -5.538    -5.538     0.000     (0)  
   Fe(OH)4-        3.383e-07   2.539e-07    -6.471    -6.595    -0.125     (0)  
   Fe(OH)2+        2.366e-08   1.775e-08    -7.626    -7.751    -0.125     (0)  
   FeOH+2          4.815e-13   1.537e-13   -12.317   -12.813    -0.496     (0)  
   FeCO3+          1.959e-13   1.470e-13   -12.708   -12.833    -0.125     (0)  
   Fe+3            4.542e-19   6.824e-20   -18.343   -19.166    -0.823     (0)  
   FeCl2+          7.093e-20   5.322e-20   -19.149   -19.274    -0.125     (0)  
   FeCl+2          2.995e-21   9.561e-22   -20.524   -21.019    -0.496     (0)  
   FeSO4+          9.812e-22   7.363e-22   -21.008   -21.133    -0.125     (0)  
   FeNO3+2         4.668e-22   1.490e-22   -21.331   -21.827    -0.496     (0)  
   Fe2(OH)2+4      4.526e-23   6.358e-25   -22.344   -24.197    -1.852     (0)  
   Fe(SO4)2-       1.586e-24   1.190e-24   -23.800   -23.925    -0.125     (0)  
   FeCl4-          4.931e-25   3.700e-25   -24.307   -24.432    -0.125     (0)  
   Fe3(OH)4+5      1.466e-27   2.358e-30   -26.834   -29.627    -2.794     (0)  
H(0)          1.370e-28
   H2              6.852e-29   7.096e-29   -28.164   -28.149     0.015     (0)  
K             7.766e-04
   K+              7.744e-04   5.653e-04    -3.111    -3.248    -0.137     (0)  
   KCl             1.502e-06   1.502e-06    -5.823    -5.823     0.000     (0)  
   KSO4-           6.338e-07   4.756e-07    -6.198    -6.323    -0.125     (0)  
   KOH             6.838e-10   6.838e-10    -9.165    -9.165     0.000     (0)  
   KHSO4           1.288e-15   1.288e-15   -14.890   -14.890     0.000     (0)  
Li            7.509e-05
   Li+             7.490e-05   5.868e-05    -4.126    -4.231    -0.106     (0)  
   LiCl            1.485e-07   1.485e-07    -6.828    -6.828     0.000     (0)  
   LiSO4-          4.755e-08   3.568e-08    -7.323    -7.448    -0.125     (0)  
   LiOH            4.690e-10   4.690e-10    -9.329    -9.329     0.000     (0)  
Mg            4.997e-04
   Mg+2            3.497e-04   1.439e-04    -3.456    -3.842    -0.386     (0)  
   MgCO3           6.916e-05   6.916e-05    -4.160    -4.160     0.000     (0)  
   MgHCO3+         6.139e-05   4.607e-05    -4.212    -4.337    -0.125     (0)  
   MgCl+           1.139e-05   8.544e-06    -4.944    -5.068    -0.125     (0)  
   MgSO4           4.182e-06   4.182e-06    -5.379    -5.379     0.000     (0)  
   MgB(OH)4+       3.883e-06   2.914e-06    -5.411    -5.536    -0.125     (0)  
   Mg4(OH)4+4      8.038e-20   1.129e-21   -19.095   -20.947    -1.852     (0)  
Mn(2)         2.579e-07
   MnCO3           2.110e-07   2.110e-07    -6.676    -6.676     0.000     (0)  
   Mn+2            3.918e-08   1.416e-08    -7.407    -7.849    -0.442     (0)  
   MnHCO3+         3.932e-09   2.951e-09    -8.405    -8.530    -0.125     (0)  
   MnCl+           3.215e-09   2.413e-09    -8.493    -8.617    -0.125     (0)  
   MnSO4           3.708e-10   3.708e-10    -9.431    -9.431     0.000     (0)  
   MnOH+           1.692e-10   1.270e-10    -9.771    -9.896    -0.125     (0)  
   MnNO3+          6.532e-12   4.902e-12   -11.185   -11.310    -0.125     (0)  
   MnCl3-          3.860e-12   2.897e-12   -11.413   -11.538    -0.125     (0)  
   Mn(OH)2         1.088e-13   1.088e-13   -12.964   -12.964     0.000     (0)  
   Mn2(OH)3+       1.429e-14   1.072e-14   -13.845   -13.970    -0.125     (0)  
   Mn(NO3)2        2.689e-15   2.689e-15   -14.570   -14.570     0.000     (0)  
   MnSeO4          1.076e-16   1.076e-16   -15.968   -15.968     0.000     (0)  
   Mn(OH)3-        4.742e-17   3.559e-17   -16.324   -16.449    -0.125     (0)  
   Mn2OH+3         2.316e-17   1.927e-18   -16.635   -17.715    -1.080     (0)  
   Mn(OH)4-2       3.457e-22   1.051e-22   -21.461   -21.978    -0.517     (0)  
Mn(3)         5.265e-29
   Mn+3            5.265e-29   4.381e-30   -28.279   -29.358    -1.080     (0)  
Mn(6)         0.000e+00
   MnO4-2          0.000e+00   0.000e+00   -40.693   -41.210    -0.517     (0)  
Mn(7)         0.000e+00
   MnO4-           0.000e+00   0.000e+00   -46.326   -46.457    -0.130     (0)  
N(5)          2.993e-04
   NO3-            2.991e-04   2.184e-04    -3.524    -3.661    -0.137     (0)  
   CaNO3+          1.274e-07   9.561e-08    -6.895    -7.019    -0.125     (0)  
   SrNO3+          1.963e-08   1.473e-08    -7.707    -7.832    -0.125     (0)  
   BaNO3+          5.732e-09   4.301e-09    -8.242    -8.366    -0.125     (0)  
   MnNO3+          6.532e-12   4.902e-12   -11.185   -11.310    -0.125     (0)  
   HNO3            3.414e-14   3.414e-14   -13.467   -13.467     0.000     (0)  
   Mn(NO3)2        2.689e-15   2.689e-15   -14.570   -14.570     0.000     (0)  
   FeNO3+2         4.668e-22   1.490e-22   -21.331   -21.827    -0.496     (0)  
Na            1.475e-01
   Na+             1.417e-01   1.063e-01    -0.849    -0.973    -0.125     (0)  
   NaHCO3          4.009e-03   4.009e-03    -2.397    -2.397     0.000     (0)  
   NaCl            1.442e-03   1.442e-03    -2.841    -2.841     0.000     (0)  
   NaCO3-          2.073e-04   1.556e-04    -3.683    -3.808    -0.125     (0)  
   NaSO4-          9.664e-05   7.252e-05    -4.015    -4.140    -0.125     (0)  
   NaB(OH)4        5.078e-05   5.078e-05    -4.294    -4.294     0.000     (0)  
   NaOH            7.127e-08   7.127e-08    -7.147    -7.147     0.000     (0)  
O(0)          1.066e-35
   O2              5.330e-36   5.520e-36   -35.273   -35.258     0.015     (0)  
S(6)          4.426e-04
   SO4-2           3.395e-04   1.032e-04    -3.469    -3.986    -0.517     (0)  
   NaSO4-          9.664e-05   7.252e-05    -4.015    -4.140    -0.125     (0)  
   MgSO4           4.182e-06   4.182e-06    -5.379    -5.379     0.000     (0)  
   CaSO4           1.341e-06   1.341e-06    -5.873    -5.873     0.000     (0)  
   KSO4-           6.338e-07   4.756e-07    -6.198    -6.323    -0.125     (0)  
   SrSO4           2.203e-07   2.203e-07    -6.657    -6.657     0.000     (0)  
   LiSO4-          4.755e-08   3.568e-08    -7.323    -7.448    -0.125     (0)  
   MnSO4           3.708e-10   3.708e-10    -9.431    -9.431     0.000     (0)  
   HSO4-           4.195e-11   3.148e-11   -10.377   -10.502    -0.125     (0)  
   FeSO4           1.095e-12   1.095e-12   -11.961   -11.961     0.000     (0)  
   KHSO4           1.288e-15   1.288e-15   -14.890   -14.890     0.000     (0)  
   FeSO4+          9.812e-22   7.363e-22   -21.008   -21.133    -0.125     (0)  
   H2SO4           8.005e-23   8.005e-23   -22.097   -22.097     0.000     (0)  
   Fe(SO4)2-       1.586e-24   1.190e-24   -23.800   -23.925    -0.125     (0)  
Se(-2)        2.799e-39
   HSe-            2.799e-39   2.100e-39   -38.553   -38.678    -0.125     (0)  
   H2Se            0.000e+00   0.000e+00   -43.396   -43.396     0.000     (0)  
   Se-2            0.000e+00   0.000e+00   -44.506   -45.023    -0.517     (0)  
Se(4)         5.293e-07
   SeO3-2          5.171e-07   1.573e-07    -6.286    -6.803    -0.517     (0)  
   HSeO3-          1.214e-08   9.109e-09    -7.916    -8.041    -0.125     (0)  
   H2SeO3          1.003e-14   1.003e-14   -13.999   -13.999     0.000     (0)  
Se(6)         9.283e-11
   SeO4-2          9.283e-11   2.823e-11   -10.032   -10.549    -0.517     (0)  
   MnSeO4          1.076e-16   1.076e-16   -15.968   -15.968     0.000     (0)  
   HSeO4-          9.580e-18   7.189e-18   -17.019   -17.143    -0.125     (0)  
Sr            3.696e-05
   Sr+2            3.203e-05   1.069e-05    -4.494    -4.971    -0.477     (0)  
   SrCO3           4.031e-06   4.031e-06    -5.395    -5.395     0.000     (0)  
   SrCl+           6.579e-07   4.937e-07    -6.182    -6.307    -0.125     (0)  
   SrSO4           2.203e-07   2.203e-07    -6.657    -6.657     0.000     (0)  
   SrNO3+          1.963e-08   1.473e-08    -7.707    -7.832    -0.125     (0)  
   SrOH+           2.549e-10   1.913e-10    -9.594    -9.718    -0.125     (0)  

------------------------------Saturation indices-------------------------------

  Phase               SI** log IAP   log K(300 K,   1 atm)

  Alstonite         1.72      4.30    2.58  BaCa(CO3)2
  Anhydrite        -3.67     -8.04   -4.37  CaSO4
  Antarcticite    -10.40     -6.31    4.09  CaCl2:6H2O
  Aphthitalite    -14.80    -18.69   -3.89  NaK3(SO4)2
  Aragonite         0.98      2.92    1.94  CaCO3
  Arcanite         -8.66    -10.48   -1.82  K2SO4
  Arsenolite      -40.80    -60.54  -19.74  As2O3
  Artinite         -3.10     16.38   19.47  Mg2CO3(OH)2:3H2O
  As              -46.18     -3.83   42.36  As
  As2O5           -37.27    -35.17    2.09  As2O5
  As4O6(cubi)     -81.45   -121.08  -39.63  As4O6
  As4O6(mono)     -81.22   -121.08  -39.86  As4O6
  B               -85.26     23.56  108.81  B
  B(g)           -175.88     23.56  199.44  B
  B2O3            -11.30     -5.77    5.53  B2O3
  Ba             -111.17     29.11  140.28  Ba
  Ba(OH)2:8H2O    -12.96     11.46   24.43  Ba(OH)2:8H2O
  BaCl2           -10.06     -7.84    2.21  BaCl2
  BaCl2:2H2O       -8.07     -7.85    0.23  BaCl2:2H2O
  BaCl2:H2O        -8.67     -7.85    0.83  BaCl2:H2O
  BaMnO4          -36.73    -46.82  -10.09  BaMnO4
  BaO             -36.00     11.48   47.48  BaO
  Barite            0.39     -9.59   -9.98  BaSO4
  Barytocalcite     1.56      4.30    2.74  BaCa(CO3)2
  BaSeO3           -5.83    -12.41   -6.58  BaSeO3
  BaSeO4           -8.71    -16.15   -7.45  BaSeO4
  Bassanite        -4.32     -8.05   -3.73  CaSO4:0.5H2O
  Birnessite      -43.16   -128.71  -85.55  Mn8O14:5H2O
  Bischofite      -10.49     -6.09    4.39  MgCl2:6H2O
  Bixbyite         -6.27     -7.45   -1.19  Mn2O3
  Bloedite        -11.29    -13.77   -2.48  Na2Mg(SO4)2:4H2O
  Borax            -8.56      3.57   12.14  Na2(B4O5(OH)4):8H2O
  Boric_acid       -2.76     -2.89   -0.13  B(OH)3
  Brucite          -2.91     13.24   16.15  Mg(OH)2
  Burkeite        -16.32     -6.83    9.49  Na6CO3(SO4)2
  C               -38.54     25.15   63.69  C
  C(g)           -155.32     25.15  180.47  C
  Ca             -108.21     30.66  138.87  Ca
  Ca(g)          -133.25     30.66  163.90  Ca
  Ca2Cl2(OH)2:H2O -19.56      6.73   26.29  Ca2Cl2(OH)2:H2O
  Ca3(AsO4)2      -13.72      3.91   17.63  Ca3(AsO4)2
  Ca4Cl2(OH)6:13H2O -35.57     32.75   68.33  Ca4Cl2(OH)6:13H2O
  Calcite           1.13      2.92    1.79  CaCO3
  Carnallite      -14.73    -10.46    4.27  KMgCl3:6H2O
  CaSeO3:2H2O      -6.22    -10.87   -4.65  CaSeO3:2H2O
  CaSeO4          -11.52    -14.61   -3.09  CaSeO4
  CaSO4:0.5H2O(beta)  -4.48     -8.05   -3.56  CaSO4:0.5H2O
  Celestite        -3.22     -8.96   -5.73  SrSO4
  Chloromagnesite -27.71     -6.08   21.63  MgCl2
  Cl2(g)          -39.89    -36.95    2.93  Cl2
  Claudetite      -40.84    -60.54  -19.70  As2O3
  CO2(g)           -2.26    -10.11   -7.84  CO2
  Colemanite      -12.79      8.73   21.51  Ca2B6O11:5H2O
  Dolomite          3.66      6.06    2.40  CaMg(CO3)2
  Dolomite-dis      2.14      6.06    3.93  CaMg(CO3)2
  Dolomite-ord      3.67      6.06    2.39  CaMg(CO3)2
  Downeyite       -17.10    -23.89   -6.79  SeO2
  Epsomite         -5.88     -7.84   -1.96  MgSO4:7H2O
  Fe              -34.04     24.54   58.58  Fe
  Fe(OH)2          -6.87      6.91   13.78  Fe(OH)2
  Fe(OH)3           0.92      6.46    5.54  Fe(OH)3
  Fe2(SO4)3       -53.04    -50.29    2.75  Fe2(SO4)3
  FeO              -6.49      6.91   13.40  FeO
  Ferrite-Ca        4.77     25.96   21.19  CaFe2O4
  Ferrite-Dicalcium -17.26     38.99   56.24  Ca2Fe2O5
  Ferrite-Mg        5.48     26.18   20.69  MgFe2O4
  Ferroselite     -46.12   -126.57  -80.45  FeSe2
  FeSO4           -16.68    -14.16    2.52  FeSO4
  Gaylussite       -3.22      7.95   11.16  CaNa2(CO3)2:5H2O
  Glauberite       -8.51    -13.98   -5.47  Na2Ca(SO4)2
  Goethite          6.01      6.46    0.46  FeOOH
  Gypsum           -3.51     -8.05   -4.53  CaSO4:2H2O
  H2(g)           -25.04    -28.15   -3.11  H2
  H2O(g)           -1.54     -0.00    1.53  H2O
  Halite           -3.66     -2.09    1.57  NaCl
  Hausmannite      -8.05      1.78    9.83  Mn3O4
  HCl(g)          -15.88     -9.66    6.21  HCl
  Hematite         13.01     12.93   -0.08  Fe2O3
  Hexahydrite      -6.11     -7.84   -1.73  MgSO4:6H2O
  Huntite           2.33     12.34   10.02  CaMg3(CO3)4
  Hydroboracite   -11.42      8.94   20.36  MgCaB6O11:6H2O
  Hydromagnesite   -4.59     25.79   30.39  Mg5(CO3)4(OH)2:4H2O
  Hydrophilite    -17.95     -6.30   11.65  CaCl2
  Ice              -0.15     -0.00    0.15  H2O
  Jarosite         -7.83    -17.46   -9.63  KFe3(SO4)2(OH)6
  Jarosite-Na      -9.74    -15.19   -5.45  NaFe3(SO4)2(OH)6
  K               -56.41     14.11   70.52  K
  K(g)            -66.91     14.11   81.02  K
  K2CO3:1.5H2O    -12.90      0.48   13.38  K2CO3:1.5H2O
  K2O             -72.95     10.59   83.54  K2O
  K2Se            -62.74    -51.52   11.22  K2Se
  K3H(SO4)2       -22.64    -26.26   -3.62  K3H(SO4)2
  K8H4(CO3)6:3H2O -45.99    -18.28   27.71  K8H4(CO3)6:3H2O
  Kainite         -11.89    -12.20   -0.31  KMgClSO4:3H2O
  Kalicinite       -5.09     -4.81    0.28  KHCO3
  Kieserite        -7.56     -7.83   -0.27  MgSO4:H2O
  KMgCl3          -31.54    -10.45   21.09  KMgCl3
  KMgCl3:2H2O     -24.32    -10.45   13.87  KMgCl3:2H2O
  KNaCO3:6H2O      -7.51      2.75   10.26  KNaCO3:6H2O
  Lansfordite      -1.71      3.13    4.84  MgCO3:5H2O
  Lawrencite      -21.37    -12.41    8.95  FeCl2
  Leonite         -14.21    -18.32   -4.11  K2Mg(SO4)2:4H2O
  Li              -59.14     13.13   72.27  Li
  Li(g)           -81.14     13.13   94.27  Li
  Li2Se           -64.44     37.62  102.06  Li2Se
  Lime            -19.31     13.03   32.34  CaO
  Magnesite         0.92      3.14    2.22  MgCO3
  Magnetite         9.68     19.84   10.16  Fe3O4
  Manganite        -3.56     -3.73   -0.16  MnO(OH)
  Manganosite      -8.54      9.24   17.77  MnO
  Melanterite     -11.79    -14.18   -2.39  FeSO4:7H2O
  Mercallite      -14.34    -15.78   -1.44  KHSO4
  Mg              -90.78     30.87  121.65  Mg
  Mg(g)          -110.33     30.87  141.20  Mg
  Mg1.25SO4(OH)0.5:0.5H2O  -9.60     -4.52    5.08  Mg1.25SO4(OH)0.5:0.5H2O
  Mg1.5SO4(OH)    -10.27     -1.21    9.06  Mg1.5SO4(OH)
  MgCl2:2H2O      -18.71     -6.08   12.62  MgCl2:2H2O
  MgCl2:4H2O      -13.34     -6.09    7.25  MgCl2:4H2O
  MgCl2:H2O       -22.01     -6.08   15.93  MgCl2:H2O
  MgOHCl          -12.17      3.58   15.75  MgOHCl
  MgSeO3          -12.23    -10.65    1.58  MgSeO3
  MgSeO3:6H2O      -7.24    -10.66   -3.42  MgSeO3:6H2O
  MgSO4           -12.55     -7.83    4.72  MgSO4
  Mirabilite       -4.89     -5.95   -1.06  Na2SO4:10H2O
  Misenite        -94.08   -105.15  -11.08  K8H6(SO4)7
  Mn              -55.48     26.87   82.35  Mn
  Mn(OH)2(am)      -5.96      9.24   15.19  Mn(OH)2
  Mn(OH)3         -10.07     -3.73    6.34  Mn(OH)3
  MnCl2:2H2O      -14.05    -10.09    3.96  MnCl2:2H2O
  MnCl2:4H2O      -12.84    -10.10    2.74  MnCl2:4H2O
  MnCl2:H2O       -15.57    -10.09    5.48  MnCl2:H2O
  MnO2(gamma)      -8.40    -24.53  -16.13  MnO2
  MnSe            -42.17    -52.87  -10.70  MnSe
  MnSeO3           -7.38    -14.65   -7.27  MnSeO3
  MnSeO3:2H2O      -8.34    -14.66   -6.32  MnSeO3:2H2O
  MnSO4           -14.37    -11.83    2.53  MnSO4
  Molysite        -35.81    -22.52   13.29  FeCl3
  Monohydrocalcite   0.27      2.92    2.65  CaCO3:H2O
  Na              -50.54     16.38   66.93  Na
  Na(g)           -63.91     16.38   80.29  Na
  Na2CO3           -6.08      5.04   11.12  Na2CO3
  Na2CO3:7H2O      -4.95      5.02    9.97  Na2CO3:7H2O
  Na2O            -51.87     15.14   67.01  Na2O
  Na2Se           -58.71    -46.97   11.74  Na2Se
  Na2Se2          -65.72   -126.71  -60.99  Na2Se2
  Na3H(SO4)2      -18.55    -19.44   -0.89  Na3H(SO4)2
  Na4Ca(SO4)3:2H2O -14.02    -19.92   -5.89  Na4Ca(SO4)3:2H2O
  NaFeO2           -5.66     14.04   19.69  NaFeO2
  Nahcolite        -2.41     -2.54   -0.12  NaHCO3
  Natron           -4.63      5.01    9.65  Na2CO3:10H2O
  Nesquehonite     -2.10      3.13    5.24  MgCO3:3H2O
  Niter            -6.73     -6.91   -0.18  KNO3
  Nitrobarite     -10.48    -12.93   -2.45  Ba(NO3)2
  NO2(g)          -11.63     -3.39    8.24  NO2
  O2(g)           -32.35    -35.26   -2.91  O2
  Oxychloride-Mg   -9.02     16.82   25.83  Mg2Cl(OH)3:4H2O
  Pentahydrite     -6.45     -7.84   -1.39  MgSO4:5H2O
  Periclase        -7.90     13.25   21.15  MgO
  Picromerite     -13.88    -18.32   -4.44  K2Mg(SO4)2:6H2O
  Pirssonite       -3.37      7.95   11.32  Na2Ca(CO3)2:2H2O
  Polyhalite      -20.09    -34.40  -14.31  K2MgCa2(SO4)4:2H2O
  Portlandite      -9.37     13.03   22.40  Ca(OH)2
  Pyrolusite       -6.96    -24.53  -17.57  MnO2
  Rhodochrosite    -0.62     -0.87   -0.24  MnCO3
  Scacchite       -18.74    -10.09    8.65  MnCl2
  Se              -14.48     11.37   25.85  Se
  Se2O5           -60.87    -51.53    9.35  Se2O5
  SeCl4           -76.72    -62.54   14.18  SeCl4
  SeO3            -46.63    -27.64   19.00  SeO3
  Siderite         -2.94     -3.19   -0.26  FeCO3
  Sr             -111.06     29.75  140.80  Sr
  Sr(NO3)2        -13.45    -12.29    1.16  Sr(NO3)2
  Sr(NO3)2:4H2O   -13.04    -12.30    0.74  Sr(NO3)2:4H2O
  Sr(OH)2         -15.23     12.11   27.34  Sr(OH)2
  Sr3(AsO4)2      -19.26      1.18   20.44  Sr3(AsO4)2
  SrCl2           -15.04     -7.21    7.84  SrCl2
  SrCl2:2H2O      -10.48     -7.21    3.27  SrCl2:2H2O
  SrCl2:6H2O       -8.74     -7.22    1.52  SrCl2:6H2O
  SrCl2:H2O       -11.91     -7.21    4.69  SrCl2:H2O
  SrO             -29.48     12.12   41.60  SrO
  SrSeO4          -11.12    -15.52   -4.40  SrSeO4
  Starkeyite       -6.84     -7.84   -1.00  MgSO4:4H2O
  Strontianite      2.36      2.01   -0.35  SrCO3
  Sylvite          -5.21     -4.37    0.85  KCl
  Syngenite       -10.93    -18.53   -7.60  K2Ca(SO4)2:H2O
  Tachyhydrite    -35.63    -18.48   17.14  Mg2CaCl6:12H2O
  Thenardite       -5.57     -5.93   -0.36  Na2SO4
  Thermonatrite    -5.87      5.03   10.90  Na2CO3:H2O
  Todorokite      -34.84    -80.67  -45.82  Mn7O12:3H2O
  Trona-K         -13.64     -2.05   11.59  K2NaH(CO3)2:2H2O
  Witherite         4.37      1.38   -3.00  BaCO3
  Wustite          -5.78      6.50   12.28  Fe.947O

**For a gas, SI = log10(fugacity). Fugacity = pressure * phi / 1 atm.
  For ideal gases, phi = 1.

------------------
End of simulation.
------------------

------------------------------------
Reading input data for simulation 2.
------------------------------------

	SOLUTION 2 Belgian Anticline
	    temp      21
	    pH        7.77
	    pe        4
	    redox     pe
	    units     ppm
	    density   1
	    Alkalinity 930
	    As        49 ppb        N(-03)/N(5)
	    B         63
	    Ba        3.5
	    Br        33
	    C(4)      1134.6
	    Ca        240
	    Cl        8600
	    Fe        0.21 
	    K         97
	    Li        2.5
	    Mg        86
	    Mn        180 ppb
	    N(-03)    100
	    N(5)      15.062
	    Na        5600
	    S(6)      150
	    Se        160 ppb        N(-03)/N(5)
	    Sr        7
	    water    1 # kg
	END
-------------------------------------------
Beginning of initial solution calculations.
-------------------------------------------

Initial solution 2.	Belgian Anticline


pH will be adjusted to obtain desired alkalinity.

-----------------------------Solution composition------------------------------

	Elements           Molality       Moles

	Alkalinity        1.891e-02   1.891e-02
	As                6.654e-07   6.654e-07
	B                 5.929e-03   5.929e-03
	Ba                2.593e-05   2.593e-05
	Br                4.202e-04   4.202e-04
	C(4)              1.892e-02   1.892e-02
	Ca                6.092e-03   6.092e-03
	Cl                2.468e-01   2.468e-01
	Fe                3.826e-06   3.826e-06
	K                 2.524e-03   2.524e-03
	Li                3.664e-04   3.664e-04
	Mg                3.600e-03   3.600e-03
	Mn                3.333e-06   3.333e-06
	N(-03)            7.263e-03   7.263e-03
	N(5)              1.094e-03   1.094e-03
	Na                2.478e-01   2.478e-01
	S(6)              1.589e-03   1.589e-03
	Se                2.062e-06   2.062e-06
	Sr                8.128e-05   8.128e-05

----------------------------Description of solution----------------------------

                                       pH  =   7.689      Adjust alkalinity
                                       pe  =   4.000    
                        Activity of water  =   0.991
                 Ionic strength (mol/kgw)  =   2.720e-01
                       Mass of water (kg)  =   1.000e+00
                       Total CO2 (mol/kg)  =   1.892e-02
                         Temperature (°C)  =  21.00
                  Electrical balance (eq)  =  -2.500e-03
 Percent error, 100*(Cat-|An|)/(Cat+|An|)  =  -0.48
                               Iterations  =   4
                                  Total H  = 1.110862e+02
                                  Total O  = 5.560893e+01

---------------------------------Redox couples---------------------------------

	Redox couple             pe  Eh (volts)

	N(-03)/N(5)          7.0616      0.4121

----------------------------Distribution of species----------------------------

                                               Log       Log       Log    mole V
   Species          Molality    Activity  Molality  Activity     Gamma   cm³/mol

   OH-             4.910e-07   3.437e-07    -6.309    -6.464    -0.155     (0)  
   H+              2.538e-08   2.047e-08    -7.595    -7.689    -0.093      0.00
   H2O             5.553e+01   9.910e-01     1.744    -0.004     0.000     18.05
As(-3)        0.000e+00
   AsH3            0.000e+00   0.000e+00  -116.527  -116.527     0.000     (0)  
As(3)         2.063e-23
   HAsO2           1.068e-23   1.068e-23   -22.971   -22.971     0.000     (0)  
   As(OH)3         9.283e-24   9.283e-24   -23.032   -23.032     0.000     (0)  
   H2AsO3-         3.337e-25   2.382e-25   -24.477   -24.623    -0.146     (0)  
   AsO2-           3.266e-25   2.331e-25   -24.486   -24.632    -0.146     (0)  
   AsO2OH-2        4.083e-28   9.822e-29   -27.389   -28.008    -0.619     (0)  
As(5)         6.654e-07
   HAsO4-2         6.380e-07   1.535e-07    -6.195    -6.814    -0.619     (0)  
   H2AsO4-         2.695e-08   1.923e-08    -7.570    -7.716    -0.146     (0)  
   AsO4-3          4.418e-10   1.735e-11    -9.355   -10.761    -1.406     (0)  
   H3AsO4          6.669e-14   6.669e-14   -13.176   -13.176     0.000     (0)  
B(-5)         0.000e+00
   BH4-            0.000e+00   0.000e+00  -154.010  -154.156    -0.146     (0)  
B(3)          5.929e-03
   B(OH)3          5.643e-03   5.643e-03    -2.248    -2.248     0.000     (0)  
   BO2-            1.915e-04   1.367e-04    -3.718    -3.864    -0.146     (0)  
   NaB(OH)4        4.962e-05   4.962e-05    -4.304    -4.304     0.000     (0)  
   CaB(OH)4+       2.460e-05   1.756e-05    -4.609    -4.755    -0.146     (0)  
   MgB(OH)4+       1.946e-05   1.389e-05    -4.711    -4.857    -0.146     (0)  
   BaB(OH)4+       4.202e-08   2.999e-08    -7.377    -7.523    -0.146     (0)  
   B2O(OH)5-       4.501e-16   3.212e-16   -15.347   -15.493    -0.146     (0)  
Ba            2.593e-05
   Ba+2            2.526e-05   6.946e-06    -4.598    -5.158    -0.561     (0)  
   BaCl+           5.074e-07   3.622e-07    -6.295    -6.441    -0.146     (0)  
   BaCO3           6.549e-08   6.549e-08    -7.184    -7.184     0.000     (0)  
   BaNO3+          5.745e-08   4.101e-08    -7.241    -7.387    -0.146     (0)  
   BaB(OH)4+       4.202e-08   2.999e-08    -7.377    -7.523    -0.146     (0)  
   BaOH+           1.596e-11   1.139e-11   -10.797   -10.943    -0.146     (0)  
Br(-03)       4.307e-39
   Br3-            1.436e-39   1.025e-39   -38.843   -38.989    -0.146     (0)  
Br(-1)        4.202e-04
   Br-             4.180e-04   2.864e-04    -3.379    -3.543    -0.164     (0)  
   NaBr            2.183e-06   2.183e-06    -5.661    -5.661     0.000     (0)  
   KBr             8.638e-09   8.638e-09    -8.064    -8.064     0.000     (0)  
Br(0)         2.125e-37
   Br2             1.062e-37   1.062e-37   -36.974   -36.974     0.000     (0)  
Br(1)         1.149e-34
   HBrO            8.982e-35   8.982e-35   -34.047   -34.047     0.000     (0)  
   BrO-            2.511e-35   1.792e-35   -34.600   -34.747    -0.146     (0)  
Br(5)         0.000e+00
   BrO3-           0.000e+00   0.000e+00   -81.307   -81.462    -0.155     (0)  
Br(7)         0.000e+00
   BrO4-           0.000e+00   0.000e+00  -117.682  -117.829    -0.146     (0)  
C(4)          1.892e-02
   HCO3-           1.491e-02   1.064e-02    -1.826    -1.973    -0.146     (0)  
   NaHCO3          2.809e-03   2.809e-03    -2.551    -2.551     0.000     (0)  
   CO2             5.046e-04   5.383e-04    -3.297    -3.269     0.028     (0)  
   CaHCO3+         2.978e-04   2.125e-04    -3.526    -3.673    -0.146     (0)  
   MgHCO3+         1.934e-04   1.380e-04    -3.714    -3.860    -0.146     (0)  
   CO3-2           8.254e-05   2.130e-05    -4.083    -4.672    -0.588     (0)  
   CaCO3           7.644e-05   7.644e-05    -4.117    -4.117     0.000     (0)  
   MgCO3           2.407e-05   2.407e-05    -4.618    -4.618     0.000     (0)  
   NaCO3-          1.988e-05   1.419e-05    -4.702    -4.848    -0.146     (0)  
   MnCO3           5.744e-07   5.744e-07    -6.241    -6.241     0.000     (0)  
   SrCO3           3.274e-07   3.274e-07    -6.485    -6.485     0.000     (0)  
   FeHCO3+         2.582e-07   1.843e-07    -6.588    -6.734    -0.146     (0)  
   MnHCO3+         8.076e-08   5.764e-08    -7.093    -7.239    -0.146     (0)  
   BaCO3           6.549e-08   6.549e-08    -7.184    -7.184     0.000     (0)  
   FeCO3           4.321e-08   4.321e-08    -7.364    -7.364     0.000     (0)  
   FeCO3+          6.835e-12   4.879e-12   -11.165   -11.312    -0.146     (0)  
Ca            6.092e-03
   Ca+2            5.529e-03   1.699e-03    -2.257    -2.770    -0.512     (0)  
   CaHCO3+         2.978e-04   2.125e-04    -3.526    -3.673    -0.146     (0)  
   CaCl+           8.251e-05   5.890e-05    -4.083    -4.230    -0.146     (0)  
   CaCO3           7.644e-05   7.644e-05    -4.117    -4.117     0.000     (0)  
   CaSO4           6.064e-05   6.064e-05    -4.217    -4.217     0.000     (0)  
   CaB(OH)4+       2.460e-05   1.756e-05    -4.609    -4.755    -0.146     (0)  
   CaCl2           1.195e-05   1.195e-05    -4.923    -4.923     0.000     (0)  
   CaNO3+          8.869e-06   6.331e-06    -5.052    -5.199    -0.146     (0)  
   CaOH+           1.628e-08   1.162e-08    -7.788    -7.935    -0.146     (0)  
Cl(-1)        2.468e-01
   Cl-             2.416e-01   1.655e-01    -0.617    -0.781    -0.164     (0)  
   NaCl            4.830e-03   4.830e-03    -2.316    -2.316     0.000     (0)  
   MgCl+           2.052e-04   1.464e-04    -3.688    -3.834    -0.146     (0)  
   CaCl+           8.251e-05   5.890e-05    -4.083    -4.230    -0.146     (0)  
   CaCl2           1.195e-05   1.195e-05    -4.923    -4.923     0.000     (0)  
   KCl             8.817e-06   8.817e-06    -5.055    -5.055     0.000     (0)  
   SrCl+           2.791e-06   1.992e-06    -5.554    -5.701    -0.146     (0)  
   LiCl            1.459e-06   1.459e-06    -5.836    -5.836     0.000     (0)  
   BaCl+           5.074e-07   3.622e-07    -6.295    -6.441    -0.146     (0)  
   MnCl+           3.174e-07   2.265e-07    -6.498    -6.645    -0.146     (0)  
   FeCl+           5.477e-09   3.909e-09    -8.261    -8.408    -0.146     (0)  
   MnCl3-          2.103e-09   1.501e-09    -8.677    -8.824    -0.146     (0)  
   HCl             7.573e-10   7.573e-10    -9.121    -9.121     0.000     (0)  
   FeCl2           3.400e-12   3.400e-12   -11.468   -11.468     0.000     (0)  
   FeCl4-2         1.105e-12   2.659e-13   -11.957   -12.575    -0.619     (0)  
   FeCl2+          1.443e-16   1.030e-16   -15.841   -15.987    -0.146     (0)  
   FeCl+2          2.430e-18   6.270e-19   -17.614   -18.203    -0.588     (0)  
   FeCl4-          4.753e-21   3.392e-21   -20.323   -20.469    -0.146     (0)  
Cl(1)         1.226e-36
   ClO-            7.953e-37   5.676e-37   -36.099   -36.246    -0.146     (0)  
   HClO            4.309e-37   4.309e-37   -36.366   -36.366     0.000     (0)  
Cl(3)         0.000e+00
   ClO2-           0.000e+00   0.000e+00   -64.415   -64.561    -0.146     (0)  
   HClO2           0.000e+00   0.000e+00   -69.080   -69.080     0.000     (0)  
Cl(5)         0.000e+00
   ClO3-           0.000e+00   0.000e+00   -78.682   -78.837    -0.155     (0)  
Cl(7)         0.000e+00
   ClO4-           0.000e+00   0.000e+00   -97.289   -97.444    -0.155     (0)  
Fe(2)         4.163e-07
   FeHCO3+         2.582e-07   1.843e-07    -6.588    -6.734    -0.146     (0)  
   Fe+2            1.074e-07   3.299e-08    -6.969    -7.482    -0.512     (0)  
   FeCO3           4.321e-08   4.321e-08    -7.364    -7.364     0.000     (0)  
   FeCl+           5.477e-09   3.909e-09    -8.261    -8.408    -0.146     (0)  
   FeSO4           1.324e-09   1.324e-09    -8.878    -8.878     0.000     (0)  
   FeOH+           7.076e-10   5.051e-10    -9.150    -9.297    -0.146     (0)  
   FeCl2           3.400e-12   3.400e-12   -11.468   -11.468     0.000     (0)  
   FeCl4-2         1.105e-12   2.659e-13   -11.957   -12.575    -0.619     (0)  
   Fe(OH)2         1.942e-13   1.942e-13   -12.712   -12.712     0.000     (0)  
   Fe(OH)3-        5.244e-16   3.743e-16   -15.280   -15.427    -0.146     (0)  
   Fe(OH)4-2       7.532e-23   1.812e-23   -22.123   -22.742    -0.619     (0)  
Fe(3)         3.409e-06
   Fe(OH)3         3.160e-06   3.160e-06    -5.500    -5.500     0.000     (0)  
   Fe(OH)2+        1.955e-07   1.396e-07    -6.709    -6.855    -0.146     (0)  
   Fe(OH)4-        5.383e-08   3.842e-08    -7.269    -7.415    -0.146     (0)  
   FeOH+2          3.374e-11   8.706e-12   -10.472   -11.060    -0.588     (0)  
   FeCO3+          6.835e-12   4.879e-12   -11.165   -11.312    -0.146     (0)  
   Fe+3            2.363e-16   2.785e-17   -15.627   -16.555    -0.929     (0)  
   FeCl2+          1.443e-16   1.030e-16   -15.841   -15.987    -0.146     (0)  
   FeCl+2          2.430e-18   6.270e-19   -17.614   -18.203    -0.588     (0)  
   FeSO4+          8.202e-19   5.854e-19   -18.086   -18.233    -0.146     (0)  
   FeNO3+2         8.023e-19   2.070e-19   -18.096   -18.684    -0.588     (0)  
   Fe2(OH)2+4      3.051e-19   2.040e-21   -18.516   -20.690    -2.175     (0)  
   FeCl4-          4.753e-21   3.392e-21   -20.323   -20.469    -0.146     (0)  
   Fe(SO4)2-       4.090e-21   2.919e-21   -20.388   -20.535    -0.146     (0)  
   Fe3(OH)4+5      1.083e-22   5.948e-26   -21.965   -25.226    -3.260     (0)  
H(0)          5.153e-27
   H2              2.576e-27   2.748e-27   -26.589   -26.561     0.028     (0)  
K             2.524e-03
   K+              2.510e-03   1.720e-03    -2.600    -2.765    -0.164     (0)  
   KCl             8.817e-06   8.817e-06    -5.055    -5.055     0.000     (0)  
   KSO4-           4.836e-06   3.452e-06    -5.315    -5.462    -0.146     (0)  
   KBr             8.638e-09   8.638e-09    -8.064    -8.064     0.000     (0)  
   KOH             2.887e-10   2.887e-10    -9.540    -9.540     0.000     (0)  
   KHSO4           5.376e-14   5.376e-14   -13.270   -13.270     0.000     (0)  
Li            3.664e-04
   Li+             3.644e-04   2.765e-04    -3.438    -3.558    -0.120     (0)  
   LiCl            1.459e-06   1.459e-06    -5.836    -5.836     0.000     (0)  
   LiSO4-          5.774e-07   4.121e-07    -6.239    -6.385    -0.146     (0)  
   LiOH            3.067e-10   3.067e-10    -9.513    -9.513     0.000     (0)  
Mg            3.600e-03
   Mg+2            3.089e-03   1.130e-03    -2.510    -2.947    -0.437     (0)  
   MgCl+           2.052e-04   1.464e-04    -3.688    -3.834    -0.146     (0)  
   MgHCO3+         1.934e-04   1.380e-04    -3.714    -3.860    -0.146     (0)  
   MgSO4           6.874e-05   6.874e-05    -4.163    -4.163     0.000     (0)  
   MgCO3           2.407e-05   2.407e-05    -4.618    -4.618     0.000     (0)  
   MgB(OH)4+       1.946e-05   1.389e-05    -4.711    -4.857    -0.146     (0)  
   Mg4(OH)4+4      2.381e-19   1.592e-21   -18.623   -20.798    -2.175     (0)  
Mn(2)         3.333e-06
   Mn+2            2.314e-06   7.112e-07    -5.636    -6.148    -0.512     (0)  
   MnCO3           5.744e-07   5.744e-07    -6.241    -6.241     0.000     (0)  
   MnCl+           3.174e-07   2.265e-07    -6.498    -6.645    -0.146     (0)  
   MnHCO3+         8.076e-08   5.764e-08    -7.093    -7.239    -0.146     (0)  
   MnSO4           4.200e-08   4.200e-08    -7.377    -7.377     0.000     (0)  
   MnCl3-          2.103e-09   1.501e-09    -8.677    -8.824    -0.146     (0)  
   MnOH+           1.240e-09   8.850e-10    -8.907    -9.053    -0.146     (0)  
   MnNO3+          1.174e-09   8.378e-10    -8.930    -9.077    -0.146     (0)  
   MnSeO4          5.006e-11   5.006e-11   -10.300   -10.300     0.000     (0)  
   Mn(NO3)2        1.564e-12   1.564e-12   -11.806   -11.806     0.000     (0)  
   Mn(OH)2         1.052e-13   1.052e-13   -12.978   -12.978     0.000     (0)  
   Mn2(OH)3+       1.012e-13   7.224e-14   -12.995   -13.141    -0.146     (0)  
   Mn2OH+3         1.271e-14   6.744e-16   -13.896   -15.171    -1.275     (0)  
   Mn(OH)3-        6.690e-18   4.775e-18   -17.175   -17.321    -0.146     (0)  
   Mn(OH)4-2       8.137e-24   1.958e-24   -23.090   -23.708    -0.619     (0)  
Mn(3)         2.643e-27
   Mn+3            2.643e-27   1.403e-28   -26.578   -27.853    -1.275     (0)  
Mn(6)         0.000e+00
   MnO4-2          0.000e+00   0.000e+00   -47.986   -48.604    -0.619     (0)  
Mn(7)         0.000e+00
   MnO4-           0.000e+00   0.000e+00   -54.028   -54.183    -0.155     (0)  
N(-03)        7.263e-03
   N3-             2.419e-03   1.727e-03    -2.616    -2.763    -0.146     (0)  
   HN3             1.935e-06   1.935e-06    -5.713    -5.713     0.000     (0)  
N(5)          1.094e-03
   NO3-            1.085e-03   7.433e-04    -2.965    -3.129    -0.164     (0)  
   CaNO3+          8.869e-06   6.331e-06    -5.052    -5.199    -0.146     (0)  
   SrNO3+          1.390e-07   9.924e-08    -6.857    -7.003    -0.146     (0)  
   BaNO3+          5.745e-08   4.101e-08    -7.241    -7.387    -0.146     (0)  
   MnNO3+          1.174e-09   8.378e-10    -8.930    -9.077    -0.146     (0)  
   Mn(NO3)2        1.564e-12   1.564e-12   -11.806   -11.806     0.000     (0)  
   HNO3            7.237e-13   7.237e-13   -12.140   -12.140     0.000     (0)  
   FeNO3+2         8.023e-19   2.070e-19   -18.096   -18.684    -0.588     (0)  
Na            2.478e-01
   Na+             2.397e-01   1.711e-01    -0.620    -0.767    -0.146     (0)  
   NaCl            4.830e-03   4.830e-03    -2.316    -2.316     0.000     (0)  
   NaHCO3          2.809e-03   2.809e-03    -2.551    -2.551     0.000     (0)  
   NaSO4-          4.009e-04   2.861e-04    -3.397    -3.543    -0.146     (0)  
   NaB(OH)4        4.962e-05   4.962e-05    -4.304    -4.304     0.000     (0)  
   NaCO3-          1.988e-05   1.419e-05    -4.702    -4.848    -0.146     (0)  
   NaBr            2.183e-06   2.183e-06    -5.661    -5.661     0.000     (0)  
   NaOH            1.023e-08   1.023e-08    -7.990    -7.990     0.000     (0)  
O(0)          0.000e+00
   O2              0.000e+00   0.000e+00   -40.422   -40.394     0.028     (0)  
S(6)          1.589e-03
   SO4-2           1.052e-03   2.531e-04    -2.978    -3.597    -0.619     (0)  
   NaSO4-          4.009e-04   2.861e-04    -3.397    -3.543    -0.146     (0)  
   MgSO4           6.874e-05   6.874e-05    -4.163    -4.163     0.000     (0)  
   CaSO4           6.064e-05   6.064e-05    -4.217    -4.217     0.000     (0)  
   KSO4-           4.836e-06   3.452e-06    -5.315    -5.462    -0.146     (0)  
   SrSO4           1.069e-06   1.069e-06    -5.971    -5.971     0.000     (0)  
   LiSO4-          5.774e-07   4.121e-07    -6.239    -6.385    -0.146     (0)  
   MnSO4           4.200e-08   4.200e-08    -7.377    -7.377     0.000     (0)  
   FeSO4           1.324e-09   1.324e-09    -8.878    -8.878     0.000     (0)  
   HSO4-           6.550e-10   4.675e-10    -9.184    -9.330    -0.146     (0)  
   KHSO4           5.376e-14   5.376e-14   -13.270   -13.270     0.000     (0)  
   FeSO4+          8.202e-19   5.854e-19   -18.086   -18.233    -0.146     (0)  
   H2SO4           1.011e-20   1.011e-20   -19.995   -19.995     0.000     (0)  
   Fe(SO4)2-       4.090e-21   2.919e-21   -20.388   -20.535    -0.146     (0)  
Se(-2)        0.000e+00
   HSe-            0.000e+00   0.000e+00   -50.026   -50.173    -0.146     (0)  
   H2Se            0.000e+00   0.000e+00   -54.047   -54.047     0.000     (0)  
   Se-2            0.000e+00   0.000e+00   -56.927   -57.545    -0.619     (0)  
Se(4)         9.744e-07
   SeO3-2          8.504e-07   2.046e-07    -6.070    -6.689    -0.619     (0)  
   HSeO3-          1.239e-07   8.846e-08    -6.907    -7.053    -0.146     (0)  
   H2SeO3          6.664e-13   6.664e-13   -12.176   -12.176     0.000     (0)  
Se(6)         1.087e-06
   SeO4-2          1.087e-06   2.615e-07    -5.964    -6.582    -0.619     (0)  
   MnSeO4          5.006e-11   5.006e-11   -10.300   -10.300     0.000     (0)  
   HSeO4-          5.776e-13   4.123e-13   -12.238   -12.385    -0.146     (0)  
Sr            8.128e-05
   Sr+2            7.695e-05   2.116e-05    -4.114    -4.674    -0.561     (0)  
   SrCl+           2.791e-06   1.992e-06    -5.554    -5.701    -0.146     (0)  
   SrSO4           1.069e-06   1.069e-06    -5.971    -5.971     0.000     (0)  
   SrCO3           3.274e-07   3.274e-07    -6.485    -6.485     0.000     (0)  
   SrNO3+          1.390e-07   9.924e-08    -6.857    -7.003    -0.146     (0)  
   SrOH+           7.361e-11   5.254e-11   -10.133   -10.280    -0.146     (0)  

------------------------------Saturation indices-------------------------------

  Phase               SI** log IAP   log K(294 K,   1 atm)

  Alstonite         0.92      3.50    2.58  BaCa(CO3)2
  Anhydrite        -2.06     -6.37   -4.30  CaSO4
  Antarcticite     -8.45     -4.36    4.09  CaCl2:6H2O
  Aphthitalite    -12.37    -16.25   -3.89  NaK3(SO4)2
  Aragonite         0.91      2.95    2.03  CaCO3
  Arcanite         -7.23     -9.13   -1.90  K2SO4
  Arsenolite      -44.57    -64.61  -20.05  As2O3
  Artinite         -4.76     15.18   19.94  Mg2CO3(OH)2:3H2O
  As              -45.35     -2.01   43.34  As
  As2O5           -33.02    -30.80    2.22  As2O5
  As4O6(cubi)     -89.00   -129.22  -40.23  As4O6
  As4O6(mono)     -88.78   -129.22  -40.45  As4O6
  B               -83.02     28.05  111.07  B
  B(g)           -175.65     28.05  203.70  B
  B2O3            -10.07     -4.49    5.59  B2O3
  Ba             -112.77     30.41  143.18  Ba
  Ba(OH)2:8H2O    -14.45     10.18   24.63  Ba(OH)2:8H2O
  BaBr2           -17.88    -12.24    5.63  BaBr2
  BaBr2:2H2O      -14.46    -12.25    2.21  BaBr2:2H2O
  BaCl2            -8.98     -6.72    2.26  BaCl2
  BaCl2:2H2O       -6.90     -6.73    0.17  BaCl2:2H2O
  BaCl2:H2O        -7.54     -6.72    0.82  BaCl2:H2O
  BaMnO4          -43.67    -53.76  -10.09  BaMnO4
  BaO             -38.22     10.22   48.44  BaO
  Barite            1.32     -8.75  -10.07  BaSO4
  Barytocalcite     0.76      3.50    2.74  BaCa(CO3)2
  BaSeO3           -5.29    -11.85   -6.56  BaSeO3
  BaSeO4           -4.26    -11.74   -7.48  BaSeO4
  Bassanite        -2.71     -6.37   -3.66  CaSO4:0.5H2O
  Birnessite      -60.28   -145.83  -85.55  Mn8O14:5H2O
  Bischofite       -8.92     -4.53    4.39  MgCl2:6H2O
  Bixbyite         -9.08     -9.58   -0.51  Mn2O3
  Bloedite         -9.21    -11.69   -2.48  Na2Mg(SO4)2:4H2O
  Borax            -7.02      4.83   11.85  Na2(B4O5(OH)4):8H2O
  Boric_acid       -2.04     -2.25   -0.20  B(OH)3
  Br2(g)          -36.64    -42.66   -6.02  Br2
  Br2(l)          -36.00    -42.66   -6.66  Br2
  Brucite          -4.13     12.42   16.55  Mg(OH)2
  Burkeite        -15.56     -6.08    9.49  Na6CO3(SO4)2
  C               -34.34     30.74   65.08  C
  C(g)           -153.67     30.74  184.40  C
  Ca             -108.99     32.80  141.79  Ca
  Ca(g)          -134.65     32.80  167.45  Ca
  Ca2Cl2(OH)2:H2O -18.03      8.26   26.29  Ca2Cl2(OH)2:H2O
  Ca3(AsO4)2      -11.14      7.01   18.16  Ca3(AsO4)2
  Ca4Cl2(OH)6:13H2O -34.91     33.42   68.33  Ca4Cl2(OH)6:13H2O
  Calcite           1.06      2.95    1.89  CaCO3
  Carnallite      -12.35     -8.08    4.27  KMgCl3:6H2O
  CaSeO3:2H2O      -4.87     -9.47   -4.60  CaSeO3:2H2O
  CaSeO4           -6.26     -9.35   -3.09  CaSeO4
  CaSO4:0.5H2O(beta)  -2.88     -6.37   -3.48  CaSO4:0.5H2O
  Celestite        -2.56     -8.27   -5.71  SrSO4
  Chloromagnesite -26.70     -4.51   22.20  MgCl2
  Cl2(g)          -40.26    -37.13    3.12  Cl2
  Claudetite      -44.62    -64.61  -19.99  As2O3
  CO2(g)           -1.86     -9.66   -7.80  CO2
  Colemanite       -9.78     11.73   21.51  Ca2B6O11:5H2O
  Dolomite          3.10      5.72    2.62  CaMg(CO3)2
  Dolomite-dis      1.53      5.72    4.19  CaMg(CO3)2
  Dolomite-ord      3.11      5.72    2.61  CaMg(CO3)2
  Downeyite       -15.27    -22.06   -6.79  SeO2
  Epsomite         -4.61     -6.57   -1.96  MgSO4:7H2O
  Fe              -31.81     28.09   59.90  Fe
  Fe(OH)2          -6.23      7.89   14.12  Fe(OH)2
  Fe(OH)3           0.66      6.50    5.84  Fe(OH)3
  Fe2(SO4)3       -47.55    -43.90    3.65  Fe2(SO4)3
  FeO              -5.88      7.89   13.78  FeO
  Ferrite-Ca        3.49     25.62   22.13  CaFe2O4
  Ferrite-Dicalcium -19.71     38.22   57.93  Ca2Fe2O5
  Ferrite-Mg        3.75     25.44   21.69  MgFe2O4
  Ferroselite     -67.84   -149.43  -81.59  FeSe2
  FeSO4           -13.86    -11.08    2.78  FeSO4
  Gaylussite       -4.05      7.11   11.16  CaNa2(CO3)2:5H2O
  Glauberite       -6.03    -11.50   -5.47  Na2Ca(SO4)2
  Goethite          5.83      6.50    0.68  FeOOH
  Gypsum           -1.85     -6.37   -4.53  CaSO4:2H2O
  H2(g)           -23.47    -26.56   -3.09  H2
  H2O(g)           -1.69     -0.00    1.69  H2O
  Halite           -3.10     -1.55    1.55  NaCl
  Hausmannite     -11.14     -0.36   10.79  Mn3O4
  HBr(g)          -20.31    -11.23    9.08  HBr
  HCl(g)          -14.95     -8.47    6.48  HCl
  Hematite         12.63     13.01    0.38  Fe2O3
  Hexahydrite      -4.84     -6.57   -1.73  MgSO4:6H2O
  Huntite           0.62     11.25   10.63  CaMg3(CO3)4
  Hydroboracite    -8.81     11.55   20.36  MgCaB6O11:6H2O
  Hydromagnesite   -7.98     23.48   31.46  Mg5(CO3)4(OH)2:4H2O
  Hydrophilite    -16.27     -4.33   11.94  CaCl2
  Ice              -0.13     -0.00    0.12  H2O
  Jarosite         -4.55    -13.51   -8.96  KFe3(SO4)2(OH)6
  Jarosite-Na      -6.07    -11.52   -5.45  NaFe3(SO4)2(OH)6
  K               -56.89     15.02   71.91  K
  K(g)            -67.70     15.02   82.72  K
  K2CO3:1.5H2O    -13.20      0.18   13.38  K2CO3:1.5H2O
  K2O             -75.21      9.84   85.05  K2O
  K2Se            -74.49    -63.07   11.42  K2Se
  K3H(SO4)2       -19.55    -23.18   -3.62  K3H(SO4)2
  K8H4(CO3)6:3H2O -46.30    -18.59   27.71  K8H4(CO3)6:3H2O
  Kainite          -9.79    -10.10   -0.31  KMgClSO4:3H2O
  Kalicinite       -5.02     -4.74    0.28  KHCO3
  KBr              -7.31     -6.31    1.00  KBr
  Kieserite        -6.28     -6.55   -0.27  MgSO4:H2O
  KMgCl3          -29.61     -8.05   21.56  KMgCl3
  KMgCl3:2H2O     -22.21     -8.06   14.14  KMgCl3:2H2O
  KNaCO3:6H2O      -8.10      2.16   10.26  KNaCO3:6H2O
  Lansfordite      -2.09      2.75    4.84  MgCO3:5H2O
  Lawrencite      -18.30     -9.04    9.26  FeCl2
  Leonite         -11.57    -15.69   -4.11  K2Mg(SO4)2:4H2O
  Li              -59.53     14.23   73.76  Li
  Li(g)           -82.09     14.23   96.32  Li
  Li2Se           -57.57     46.79  104.35  Li2Se
  Lime            -20.43     12.60   33.03  CaO
  Magnesite         0.39      2.77    2.38  MgCO3
  Magnetite         9.97     20.90   10.94  Fe3O4
  Manganite        -4.63     -4.79   -0.16  MnO(OH)
  Manganosite      -8.98      9.23   18.21  MnO
  Melanterite      -8.68    -11.11   -2.42  FeSO4:7H2O
  Mercallite      -12.61    -14.05   -1.44  KHSO4
  Mg              -91.67     32.62  124.30  Mg
  Mg(g)          -111.75     32.62  144.37  Mg
  Mg1.25SO4(OH)0.5:0.5H2O  -8.87     -3.44    5.43  Mg1.25SO4(OH)0.5:0.5H2O
  Mg1.5SO4(OH)     -9.84     -0.33    9.51  Mg1.5SO4(OH)
  MgBr2           -38.98    -10.03   28.94  MgBr2
  MgBr2:6H2O      -15.24    -10.06    5.19  MgBr2:6H2O
  MgCl2:2H2O      -17.47     -4.52   12.95  MgCl2:2H2O
  MgCl2:4H2O      -11.94     -4.52    7.41  MgCl2:4H2O
  MgCl2:H2O       -20.87     -4.51   16.36  MgCl2:H2O
  MgOHCl          -12.22      3.96   16.18  MgOHCl
  MgSeO3          -11.49     -9.64    1.85  MgSeO3
  MgSeO3:6H2O      -6.20     -9.66   -3.46  MgSeO3:6H2O
  MgSO4           -11.59     -6.54    5.05  MgSO4
  Mirabilite       -3.83     -5.17   -1.34  Na2SO4:10H2O
  Misenite        -82.35    -93.43  -11.08  K8H6(SO4)7
  Mn              -54.70     29.42   84.13  Mn
  Mn(OH)2(am)      -6.32      9.22   15.54  Mn(OH)2
  Mn(OH)3         -11.14     -4.80    6.34  Mn(OH)3
  MnCl2:2H2O      -11.80     -7.72    4.08  MnCl2:2H2O
  MnCl2:4H2O      -10.50     -7.73    2.78  MnCl2:4H2O
  MnCl2:H2O       -13.38     -7.71    5.66  MnCl2:H2O
  MnO2(gamma)     -11.25    -27.38  -16.13  MnO2
  MnSe            -53.00    -63.69  -10.69  MnSe
  MnSeO3           -5.57    -12.84   -7.27  MnSeO3
  MnSeO3:2H2O      -6.48    -12.84   -6.37  MnSeO3:2H2O
  MnSO4           -12.51     -9.74    2.76  MnSO4
  Molysite        -32.73    -18.90   13.83  FeCl3
  Monohydrocalcite   0.22      2.94    2.73  CaCO3:H2O
  Na              -51.26     17.02   68.28  Na
  Na(g)           -65.00     17.02   82.02  Na
  Na2CO3           -7.08      4.18   11.26  Na2CO3
  Na2CO3:7H2O      -5.72      4.16    9.88  Na2CO3:7H2O
  Na2O            -54.42     13.84   68.26  Na2O
  Na2Se           -71.08    -59.08   12.00  Na2Se
  Na2Se2          -90.09   -152.20  -62.11  Na2Se2
  Na3H(SO4)2      -16.29    -17.18   -0.89  Na3H(SO4)2
  Na4Ca(SO4)3:2H2O -10.74    -16.63   -5.89  Na4Ca(SO4)3:2H2O
  NaBr             -7.26     -4.31    2.95  NaBr
  NaBr:2H2O        -6.37     -4.32    2.05  NaBr:2H2O
  NaFeO2           -6.85     13.43   20.27  NaFeO2
  Nahcolite        -2.56     -2.74   -0.18  NaHCO3
  Natron           -5.33      4.14    9.47  Na2CO3:10H2O
  Nesquehonite     -2.65      2.76    5.40  MgCO3:3H2O
  Niter            -5.59     -5.89   -0.31  KNO3
  Nitrobarite      -8.83    -11.42   -2.59  Ba(NO3)2
  NO2(g)           -9.28     -0.72    8.56  NO2
  O2(g)           -37.53    -40.39   -2.86  O2
  Oxychloride-Mg   -9.47     16.36   25.83  Mg2Cl(OH)3:4H2O
  Pentahydrite     -5.18     -6.56   -1.39  MgSO4:5H2O
  Periclase        -9.26     12.43   21.68  MgO
  Picromerite     -11.25    -15.69   -4.44  K2Mg(SO4)2:6H2O
  Pirssonite       -4.20      7.12   11.32  Na2Ca(CO3)2:2H2O
  Polyhalite      -14.10    -28.41  -14.31  K2MgCa2(SO4)4:2H2O
  Portlandite     -10.25     12.60   22.85  Ca(OH)2
  Pyrolusite       -9.52    -27.38  -17.86  MnO2
  Rhodochrosite    -0.27     -0.43   -0.17  MnCO3
  Scacchite       -16.63     -7.71    8.92  MnCl2
  Se               -8.27     18.33   26.60  Se
  Se2O5           -53.80    -44.02    9.78  Se2O5
  SeCl4           -70.58    -55.93   14.65  SeCl4
  SeO3            -41.46    -21.96   19.51  SeO3
  Siderite         -1.63     -1.77   -0.14  FeCO3
  Sr             -112.85     30.90  143.75  Sr
  Sr(NO3)2        -12.04    -10.93    1.10  Sr(NO3)2
  Sr(NO3)2:4H2O   -11.52    -10.95    0.57  Sr(NO3)2:4H2O
  Sr(OH)2         -17.19     10.70   27.89  Sr(OH)2
  Sr3(AsO4)2      -19.67      1.30   20.97  Sr3(AsO4)2
  SrBr2           -25.01    -11.76   13.25  SrBr2
  SrBr2:6H2O      -15.36    -11.78    3.58  SrBr2:6H2O
  SrBr2:H2O       -21.44    -11.76    9.67  SrBr2:H2O
  SrCl2           -14.27     -6.24    8.03  SrCl2
  SrCl2:2H2O       -9.58     -6.24    3.33  SrCl2:2H2O
  SrCl2:6H2O       -7.69     -6.26    1.43  SrCl2:6H2O
  SrCl2:H2O       -11.06     -6.24    4.82  SrCl2:H2O
  SrO             -31.76     10.70   42.46  SrO
  SrSeO4           -6.86    -11.26   -4.40  SrSeO4
  Starkeyite       -5.56     -6.56   -1.00  MgSO4:4H2O
  Strontianite      1.36      1.04   -0.32  SrCO3
  Sylvite          -4.33     -3.55    0.79  KCl
  Syngenite        -7.90    -15.50   -7.60  K2Ca(SO4)2:H2O
  Tachyhydrite    -30.54    -13.40   17.14  Mg2CaCl6:12H2O
  Thenardite       -4.78     -5.13   -0.35  Na2SO4
  Thermonatrite    -6.83      4.18   11.00  Na2CO3:H2O
  Todorokite      -46.92    -92.74  -45.82  Mn7O12:3H2O
  Trona-K         -14.15     -2.56   11.59  K2NaH(CO3)2:2H2O
  Witherite         3.61      0.56   -3.05  BaCO3
  Wustite          -5.32      7.33   12.65  Fe.947O

**For a gas, SI = log10(fugacity). Fugacity = pressure * phi / 1 atm.
  For ideal gases, phi = 1.

------------------
End of simulation.
------------------

------------------------------------
Reading input data for simulation 3.
------------------------------------

	SOLUTION 4 Coalinga
	    temp      21
	    pH        7.36
	    pe        4
	    redox     pe
	    units     ppm
	    density   1
	    Alkalinity 705
	    As        8.95 ppb
	    B         58.5
	    Ba        0.225
	    Br        8.5
	    C(4)      854
	    Ca        41
	    Cl        1600
	    Fe        0.105
	    K         46
	    Li        0.75
	    Mg        33
	    Mn        108 ppb
	    Na        1550
	    S(6)      620
	    Se        21 ppb
	    Sr        1.6
	    N(-3)     23.01
	    N(5)      4.43
	    water    1 # kg
	END
-------------------------------------------
Beginning of initial solution calculations.
-------------------------------------------

Initial solution 4.	Coalinga


pH will be adjusted to obtain desired alkalinity.

-----------------------------Solution composition------------------------------

	Elements           Molality       Moles

	Alkalinity        1.417e-02   1.417e-02
	As                1.201e-07   1.201e-07
	B                 5.441e-03   5.441e-03
	Ba                1.648e-06   1.648e-06
	Br                1.070e-04   1.070e-04
	C(4)              1.408e-02   1.408e-02
	Ca                1.029e-03   1.029e-03
	Cl                4.538e-02   4.538e-02
	Fe                1.891e-06   1.891e-06
	K                 1.183e-03   1.183e-03
	Li                1.087e-04   1.087e-04
	Mg                1.365e-03   1.365e-03
	Mn                1.977e-06   1.977e-06
	N(-3)             1.652e-03   1.652e-03
	N(5)              3.180e-04   3.180e-04
	Na                6.780e-02   6.780e-02
	S(6)              6.492e-03   6.492e-03
	Se                2.674e-07   2.674e-07
	Sr                1.836e-05   1.836e-05

----------------------------Description of solution----------------------------

                                       pH  =   7.856      Adjust alkalinity
                                       pe  =   4.000    
                        Activity of water  =   0.998
                 Ionic strength (mol/kgw)  =   7.846e-02
                       Mass of water (kg)  =   1.000e+00
                       Total CO2 (mol/kg)  =   1.408e-02
                         Temperature (°C)  =  21.00
                  Electrical balance (eq)  =   2.615e-03
 Percent error, 100*(Cat-|An|)/(Cat+|An|)  =   1.84
                               Iterations  =   6
                                  Total H  = 1.110865e+02
                                  Total O  = 5.561028e+01

---------------------------------Redox couples---------------------------------

	Redox couple             pe  Eh (volts)

	N(-3)/N(5)           5.1752      0.3020

----------------------------Distribution of species----------------------------

                                               Log       Log       Log    mole V
   Species          Molality    Activity  Molality  Activity     Gamma   cm³/mol

   OH-             6.465e-07   5.081e-07    -6.189    -6.294    -0.105     (0)  
   H+              1.656e-08   1.394e-08    -7.781    -7.856    -0.075      0.00
   H2O             5.553e+01   9.976e-01     1.744    -0.001     0.000     18.05
As(-3)        0.000e+00
   AsH3            0.000e+00   0.000e+00   -94.252   -94.252     0.000     (0)  
As(3)         1.707e-18
   HAsO2           8.723e-19   8.723e-19   -18.059   -18.059     0.000     (0)  
   As(OH)3         7.629e-19   7.629e-19   -18.118   -18.118     0.000     (0)  
   H2AsO3-         3.627e-20   2.875e-20   -19.440   -19.541    -0.101     (0)  
   AsO2-           3.527e-20   2.795e-20   -19.453   -19.554    -0.101     (0)  
   AsO2OH-2        4.511e-23   1.741e-23   -22.346   -22.759    -0.413     (0)  
As(5)         1.201e-07
   HAsO4-2         1.153e-07   4.449e-08    -6.938    -7.352    -0.413     (0)  
   H2AsO4-         4.790e-09   3.796e-09    -8.320    -8.421    -0.101     (0)  
   AsO4-3          6.348e-11   7.385e-12   -10.197   -11.132    -0.934     (0)  
   H3AsO4          8.963e-15   8.963e-15   -14.048   -14.048     0.000     (0)  
B(-5)         0.000e+00
   BH4-            0.000e+00   0.000e+00  -155.270  -155.371    -0.101     (0)  
B(3)          5.441e-03
   B(OH)3          5.174e-03   5.174e-03    -2.286    -2.286     0.000     (0)  
   BO2-            2.306e-04   1.828e-04    -3.637    -3.738    -0.101     (0)  
   NaB(OH)4        2.049e-05   2.049e-05    -4.688    -4.688     0.000     (0)  
   MgB(OH)4+       1.014e-05   8.034e-06    -4.994    -5.095    -0.101     (0)  
   CaB(OH)4+       6.405e-06   5.076e-06    -5.193    -5.294    -0.101     (0)  
   BaB(OH)4+       4.914e-09   3.894e-09    -8.309    -8.410    -0.101     (0)  
   B2O(OH)5-       5.003e-16   3.965e-16   -15.301   -15.402    -0.101     (0)  
Ba            1.648e-06
   Ba+2            1.623e-06   6.654e-07    -5.790    -6.177    -0.387     (0)  
   BaCl+           9.281e-09   7.356e-09    -8.032    -8.133    -0.101     (0)  
   BaCO3           8.705e-09   8.705e-09    -8.060    -8.060     0.000     (0)  
   BaB(OH)4+       4.914e-09   3.894e-09    -8.309    -8.410    -0.101     (0)  
   BaNO3+          1.649e-09   1.307e-09    -8.783    -8.884    -0.101     (0)  
   BaOH+           2.036e-12   1.614e-12   -11.691   -11.792    -0.101     (0)  
Br(-03)       0.000e+00
   Br3-            0.000e+00   0.000e+00   -40.499   -40.600    -0.101     (0)  
Br(-1)        1.070e-04
   Br-             1.068e-04   8.317e-05    -3.972    -4.080    -0.108     (0)  
   NaBr            1.932e-07   1.932e-07    -6.714    -6.714     0.000     (0)  
   KBr             1.322e-09   1.322e-09    -8.879    -8.879     0.000     (0)  
Br(0)         1.793e-38
   Br2             8.964e-39   8.964e-39   -38.047   -38.047     0.000     (0)  
Br(1)         5.283e-35
   HBrO            3.857e-35   3.857e-35   -34.414   -34.414     0.000     (0)  
   BrO-            1.426e-35   1.130e-35   -34.846   -34.947    -0.101     (0)  
Br(5)         0.000e+00
   BrO3-           0.000e+00   0.000e+00   -80.884   -80.989    -0.105     (0)  
Br(7)         0.000e+00
   BrO4-           0.000e+00   0.000e+00  -116.918  -117.019    -0.101     (0)  
C(4)          1.408e-02
   HCO3-           1.269e-02   1.006e-02    -1.897    -1.998    -0.101     (0)  
   NaHCO3          8.084e-04   8.084e-04    -3.092    -3.092     0.000     (0)  
   CO2             3.375e-04   3.440e-04    -3.472    -3.464     0.008     (0)  
   CO3-2           7.421e-05   2.955e-05    -4.130    -4.529    -0.400     (0)  
   MgHCO3+         7.020e-05   5.564e-05    -4.154    -4.255    -0.101     (0)  
   CaHCO3+         5.403e-05   4.282e-05    -4.267    -4.368    -0.101     (0)  
   CaCO3           2.262e-05   2.262e-05    -4.646    -4.646     0.000     (0)  
   MgCO3           1.425e-05   1.425e-05    -4.846    -4.846     0.000     (0)  
   NaCO3-          7.568e-06   5.998e-06    -5.121    -5.222    -0.101     (0)  
   MnCO3           5.415e-07   5.415e-07    -6.266    -6.266     0.000     (0)  
   SrCO3           1.363e-07   1.363e-07    -6.866    -6.866     0.000     (0)  
   MnHCO3+         4.669e-08   3.700e-08    -7.331    -7.432    -0.101     (0)  
   FeHCO3+         3.710e-08   2.940e-08    -7.431    -7.532    -0.101     (0)  
   FeCO3           1.012e-08   1.012e-08    -7.995    -7.995     0.000     (0)  
   BaCO3           8.705e-09   8.705e-09    -8.060    -8.060     0.000     (0)  
   FeCO3+          1.442e-12   1.143e-12   -11.841   -11.942    -0.101     (0)  
Ca            1.029e-03
   Ca+2            8.381e-04   3.624e-04    -3.077    -3.441    -0.364     (0)  
   CaSO4           1.035e-04   1.035e-04    -3.985    -3.985     0.000     (0)  
   CaHCO3+         5.403e-05   4.282e-05    -4.267    -4.368    -0.101     (0)  
   CaCO3           2.262e-05   2.262e-05    -4.646    -4.646     0.000     (0)  
   CaB(OH)4+       6.405e-06   5.076e-06    -5.193    -5.294    -0.101     (0)  
   CaCl+           3.360e-06   2.663e-06    -5.474    -5.575    -0.101     (0)  
   CaNO3+          5.667e-07   4.492e-07    -6.247    -6.348    -0.101     (0)  
   CaCl2           1.145e-07   1.145e-07    -6.941    -6.941     0.000     (0)  
   CaOH+           4.623e-09   3.664e-09    -8.335    -8.436    -0.101     (0)  
Cl(-1)        4.538e-02
   Cl-             4.505e-02   3.509e-02    -1.346    -1.455    -0.108     (0)  
   NaCl            3.119e-04   3.119e-04    -3.506    -3.506     0.000     (0)  
   MgCl+           1.671e-05   1.324e-05    -4.777    -4.878    -0.101     (0)  
   CaCl+           3.360e-06   2.663e-06    -5.474    -5.575    -0.101     (0)  
   KCl             9.851e-07   9.851e-07    -6.007    -6.007     0.000     (0)  
   SrCl+           1.599e-07   1.267e-07    -6.796    -6.897    -0.101     (0)  
   CaCl2           1.145e-07   1.145e-07    -6.941    -6.941     0.000     (0)  
   LiCl            9.783e-08   9.783e-08    -7.010    -7.010     0.000     (0)  
   MnCl+           4.118e-08   3.263e-08    -7.385    -7.486    -0.101     (0)  
   BaCl+           9.281e-09   7.356e-09    -8.032    -8.133    -0.101     (0)  
   FeCl+           1.766e-10   1.399e-10    -9.753    -9.854    -0.101     (0)  
   HCl             1.093e-10   1.093e-10    -9.961    -9.961     0.000     (0)  
   MnCl3-          1.226e-11   9.714e-12   -10.912   -11.013    -0.101     (0)  
   FeCl2           2.580e-14   2.580e-14   -13.588   -13.588     0.000     (0)  
   FeCl4-2         2.349e-16   9.067e-17   -15.629   -16.043    -0.413     (0)  
   FeCl2+          9.859e-19   7.814e-19   -18.006   -18.107    -0.101     (0)  
   FeCl+2          5.637e-20   2.245e-20   -19.249   -19.649    -0.400     (0)  
   FeCl4-          1.460e-24   1.157e-24   -23.836   -23.937    -0.101     (0)  
Cl(1)         4.647e-37
   ClO-            3.296e-37   2.613e-37   -36.482   -36.583    -0.101     (0)  
   HClO            1.351e-37   1.351e-37   -36.869   -36.869     0.000     (0)  
Cl(3)         0.000e+00
   ClO2-           0.000e+00   0.000e+00   -64.461   -64.562    -0.101     (0)  
   HClO2           0.000e+00   0.000e+00   -69.248   -69.248     0.000     (0)  
Cl(5)         0.000e+00
   ClO3-           0.000e+00   0.000e+00   -78.396   -78.501    -0.105     (0)  
Cl(7)         0.000e+00
   ClO4-           0.000e+00   0.000e+00   -96.666   -96.771    -0.105     (0)  
Fe(2)         6.224e-08
   FeHCO3+         3.710e-08   2.940e-08    -7.431    -7.532    -0.101     (0)  
   Fe+2            1.288e-08   5.572e-09    -7.890    -8.254    -0.364     (0)  
   FeCO3           1.012e-08   1.012e-08    -7.995    -7.995     0.000     (0)  
   FeSO4           1.789e-09   1.789e-09    -8.747    -8.747     0.000     (0)  
   FeCl+           1.766e-10   1.399e-10    -9.753    -9.854    -0.101     (0)  
   FeOH+           1.591e-10   1.261e-10    -9.798    -9.899    -0.101     (0)  
   Fe(OH)2         7.168e-14   7.168e-14   -13.145   -13.145     0.000     (0)  
   FeCl2           2.580e-14   2.580e-14   -13.588   -13.588     0.000     (0)  
   Fe(OH)3-        2.577e-16   2.042e-16   -15.589   -15.690    -0.101     (0)  
   FeCl4-2         2.349e-16   9.067e-17   -15.629   -16.043    -0.413     (0)  
   Fe(OH)4-2       3.787e-23   1.462e-23   -22.422   -22.835    -0.413     (0)  
Fe(3)         1.828e-06
   Fe(OH)3         1.724e-06   1.724e-06    -5.763    -5.763     0.000     (0)  
   Fe(OH)2+        6.499e-08   5.151e-08    -7.187    -7.288    -0.101     (0)  
   Fe(OH)4-        3.911e-08   3.100e-08    -7.408    -7.509    -0.101     (0)  
   FeOH+2          5.459e-12   2.174e-12   -11.263   -11.663    -0.400     (0)  
   FeCO3+          1.442e-12   1.143e-12   -11.841   -11.942    -0.101     (0)  
   Fe+3            2.349e-17   4.704e-18   -16.629   -17.328    -0.698     (0)  
   FeSO4+          9.987e-19   7.915e-19   -18.001   -18.102    -0.101     (0)  
   FeCl2+          9.859e-19   7.814e-19   -18.006   -18.107    -0.101     (0)  
   FeCl+2          5.637e-20   2.245e-20   -19.249   -19.649    -0.400     (0)  
   Fe(SO4)2-       3.987e-20   3.159e-20   -19.399   -19.500    -0.101     (0)  
   FeNO3+2         2.921e-20   1.163e-20   -19.534   -19.934    -0.400     (0)  
   Fe2(OH)2+4      4.121e-21   1.272e-22   -20.385   -21.896    -1.511     (0)  
   FeCl4-          1.460e-24   1.157e-24   -23.836   -23.937    -0.101     (0)  
   Fe3(OH)4+5      2.682e-25   1.369e-27   -24.572   -26.864    -2.292     (0)  
H(0)          2.500e-27
   H2              1.250e-27   1.274e-27   -26.903   -26.895     0.008     (0)  
K             1.183e-03
   K+              1.164e-03   9.065e-04    -2.934    -3.043    -0.108     (0)  
   KSO4-           1.838e-05   1.457e-05    -4.736    -4.837    -0.101     (0)  
   KCl             9.851e-07   9.851e-07    -6.007    -6.007     0.000     (0)  
   KBr             1.322e-09   1.322e-09    -8.879    -8.879     0.000     (0)  
   KOH             2.249e-10   2.249e-10    -9.648    -9.648     0.000     (0)  
   KHSO4           1.545e-13   1.545e-13   -12.811   -12.811     0.000     (0)  
Li            1.087e-04
   Li+             1.072e-04   8.744e-05    -3.970    -4.058    -0.089     (0)  
   LiSO4-          1.317e-06   1.043e-06    -5.881    -5.982    -0.101     (0)  
   LiCl            9.783e-08   9.783e-08    -7.010    -7.010     0.000     (0)  
   LiOH            1.434e-10   1.434e-10    -9.844    -9.844     0.000     (0)  
Mg            1.365e-03
   Mg+2            1.019e-03   4.821e-04    -2.992    -3.317    -0.325     (0)  
   MgSO4           2.348e-04   2.348e-04    -3.629    -3.629     0.000     (0)  
   MgHCO3+         7.020e-05   5.564e-05    -4.154    -4.255    -0.101     (0)  
   MgCl+           1.671e-05   1.324e-05    -4.777    -4.878    -0.101     (0)  
   MgCO3           1.425e-05   1.425e-05    -4.846    -4.846     0.000     (0)  
   MgB(OH)4+       1.014e-05   8.034e-06    -4.994    -5.095    -0.101     (0)  
   Mg4(OH)4+4      8.165e-21   2.519e-22   -20.088   -21.599    -1.511     (0)  
Mn(2)         1.977e-06
   Mn+2            1.118e-06   4.833e-07    -5.952    -6.316    -0.364     (0)  
   MnCO3           5.415e-07   5.415e-07    -6.266    -6.266     0.000     (0)  
   MnSO4           2.285e-07   2.285e-07    -6.641    -6.641     0.000     (0)  
   MnHCO3+         4.669e-08   3.700e-08    -7.331    -7.432    -0.101     (0)  
   MnCl+           4.118e-08   3.263e-08    -7.385    -7.486    -0.101     (0)  
   MnOH+           1.122e-09   8.890e-10    -8.950    -9.051    -0.101     (0)  
   MnNO3+          2.390e-10   1.894e-10    -9.622    -9.723    -0.101     (0)  
   MnCl3-          1.226e-11   9.714e-12   -10.912   -11.013    -0.101     (0)  
   Mn(OH)2         1.562e-13   1.562e-13   -12.806   -12.806     0.000     (0)  
   Mn2(OH)3+       1.360e-13   1.078e-13   -12.866   -12.967    -0.101     (0)  
   Mn(NO3)2        1.177e-13   1.177e-13   -12.929   -12.929     0.000     (0)  
   Mn2OH+3         3.454e-15   4.604e-16   -14.462   -15.337    -0.875     (0)  
   MnSeO4          2.455e-17   2.455e-17   -16.610   -16.610     0.000     (0)  
   Mn(OH)3-        1.323e-17   1.048e-17   -16.878   -16.979    -0.101     (0)  
   Mn(OH)4-2       1.646e-23   6.354e-24   -22.783   -23.197    -0.413     (0)  
Mn(3)         7.150e-28
   Mn+3            7.150e-28   9.531e-29   -27.146   -28.021    -0.875     (0)  
Mn(6)         0.000e+00
   MnO4-2          0.000e+00   0.000e+00   -47.012   -47.425    -0.413     (0)  
Mn(7)         0.000e+00
   MnO4-           0.000e+00   0.000e+00   -52.900   -53.004    -0.105     (0)  
N(-3)         1.652e-03
   NH4+            1.613e-03   1.245e-03    -2.792    -2.905    -0.113     (0)  
   NH3             3.868e-05   3.868e-05    -4.413    -4.413     0.000     (0)  
   NH4SO4-         1.201e-14   9.515e-15   -13.921   -14.022    -0.101     (0)  
N(5)          3.180e-04
   NO3-            3.175e-04   2.473e-04    -3.498    -3.607    -0.108     (0)  
   CaNO3+          5.667e-07   4.492e-07    -6.247    -6.348    -0.101     (0)  
   SrNO3+          1.250e-08   9.907e-09    -7.903    -8.004    -0.101     (0)  
   BaNO3+          1.649e-09   1.307e-09    -8.783    -8.884    -0.101     (0)  
   MnNO3+          2.390e-10   1.894e-10    -9.622    -9.723    -0.101     (0)  
   HNO3            1.639e-13   1.639e-13   -12.785   -12.785     0.000     (0)  
   Mn(NO3)2        1.177e-13   1.177e-13   -12.929   -12.929     0.000     (0)  
   FeNO3+2         2.921e-20   1.163e-20   -19.534   -19.934    -0.400     (0)  
Na            6.780e-02
   Na+             6.577e-02   5.212e-02    -1.182    -1.283    -0.101     (0)  
   NaSO4-          8.805e-04   6.978e-04    -3.055    -3.156    -0.101     (0)  
   NaHCO3          8.084e-04   8.084e-04    -3.092    -3.092     0.000     (0)  
   NaCl            3.119e-04   3.119e-04    -3.506    -3.506     0.000     (0)  
   NaB(OH)4        2.049e-05   2.049e-05    -4.688    -4.688     0.000     (0)  
   NaCO3-          7.568e-06   5.998e-06    -5.121    -5.222    -0.101     (0)  
   NaBr            1.932e-07   1.932e-07    -6.714    -6.714     0.000     (0)  
   NaOH            4.608e-09   4.608e-09    -8.336    -8.336     0.000     (0)  
O(0)          3.733e-40
   O2              1.866e-40   1.902e-40   -39.729   -39.721     0.008     (0)  
S(6)          6.492e-03
   SO4-2           5.250e-03   2.026e-03    -2.280    -2.693    -0.413     (0)  
   NaSO4-          8.805e-04   6.978e-04    -3.055    -3.156    -0.101     (0)  
   MgSO4           2.348e-04   2.348e-04    -3.629    -3.629     0.000     (0)  
   CaSO4           1.035e-04   1.035e-04    -3.985    -3.985     0.000     (0)  
   KSO4-           1.838e-05   1.457e-05    -4.736    -4.837    -0.101     (0)  
   SrSO4           2.567e-06   2.567e-06    -5.591    -5.591     0.000     (0)  
   LiSO4-          1.317e-06   1.043e-06    -5.881    -5.982    -0.101     (0)  
   MnSO4           2.285e-07   2.285e-07    -6.641    -6.641     0.000     (0)  
   HSO4-           3.216e-09   2.549e-09    -8.493    -8.594    -0.101     (0)  
   FeSO4           1.789e-09   1.789e-09    -8.747    -8.747     0.000     (0)  
   KHSO4           1.545e-13   1.545e-13   -12.811   -12.811     0.000     (0)  
   NH4SO4-         1.201e-14   9.515e-15   -13.921   -14.022    -0.101     (0)  
   FeSO4+          9.987e-19   7.915e-19   -18.001   -18.102    -0.101     (0)  
   Fe(SO4)2-       3.987e-20   3.159e-20   -19.399   -19.500    -0.101     (0)  
   H2SO4           3.752e-20   3.752e-20   -19.426   -19.426     0.000     (0)  
Se(-2)        5.828e-34
   HSe-            5.827e-34   4.618e-34   -33.235   -33.336    -0.101     (0)  
   H2Se            4.194e-38   4.194e-38   -37.377   -37.377     0.000     (0)  
   Se-2            0.000e+00   0.000e+00   -40.128   -40.541    -0.413     (0)  
Se(4)         2.674e-07
   SeO3-2          2.339e-07   9.028e-08    -6.631    -7.044    -0.413     (0)  
   HSeO3-          3.353e-08   2.658e-08    -7.475    -7.575    -0.101     (0)  
   H2SeO3          1.363e-13   1.363e-13   -12.865   -12.865     0.000     (0)  
Se(6)         4.889e-13
   SeO4-2          4.889e-13   1.887e-13   -12.311   -12.724    -0.413     (0)  
   MnSeO4          2.455e-17   2.455e-17   -16.610   -16.610     0.000     (0)  
   HSeO4-          2.556e-19   2.026e-19   -18.592   -18.693    -0.101     (0)  
Sr            1.836e-05
   Sr+2            1.549e-05   6.350e-06    -4.810    -5.197    -0.387     (0)  
   SrSO4           2.567e-06   2.567e-06    -5.591    -5.591     0.000     (0)  
   SrCl+           1.599e-07   1.267e-07    -6.796    -6.897    -0.101     (0)  
   SrCO3           1.363e-07   1.363e-07    -6.866    -6.866     0.000     (0)  
   SrNO3+          1.250e-08   9.907e-09    -7.903    -8.004    -0.101     (0)  
   SrOH+           2.941e-11   2.331e-11   -10.532   -10.633    -0.101     (0)  

------------------------------Saturation indices-------------------------------

  Phase               SI** log IAP   log K(294 K,   1 atm)

  Alstonite        -0.49      2.10    2.58  BaCa(CO3)2
  Anhydrite        -1.83     -6.13   -4.30  CaSO4
  Antarcticite    -10.45     -6.36    4.09  CaCl2:6H2O
  Aphthitalite    -11.91    -15.80   -3.89  NaK3(SO4)2
  Aragonite         0.38      2.42    2.03  CaCO3
[...]
Cl(5)         0.000e+00
   ClO3-           0.000e+00   0.000e+00   -76.152   -76.297    -0.145     (0)  
Cl(7)         0.000e+00
   ClO4-           0.000e+00   0.000e+00   -93.992   -94.137    -0.145     (0)  
Fe(2)         2.027e-06
   FeHCO3+         1.386e-06   1.009e-06    -5.858    -5.996    -0.138     (0)  
   Fe+2            3.114e-07   1.021e-07    -6.507    -6.991    -0.484     (0)  
   FeCO3           3.113e-07   3.113e-07    -6.507    -6.507     0.000     (0)  
   FeCl+           1.369e-08   9.968e-09    -7.864    -8.001    -0.138     (0)  
   FeOH+           2.829e-09   2.060e-09    -8.548    -8.686    -0.138     (0)  
   FeSO4           2.200e-09   2.200e-09    -8.658    -8.658     0.000     (0)  
   FeCl2           7.170e-12   7.170e-12   -11.145   -11.145     0.000     (0)  
   FeCl4-2         1.406e-12   3.722e-13   -11.852   -12.429    -0.577     (0)  
   Fe(OH)2         1.044e-12   1.044e-12   -11.981   -11.981     0.000     (0)  
   Fe(OH)3-        3.641e-15   2.651e-15   -14.439   -14.577    -0.138     (0)  
   Fe(OH)4-2       6.388e-22   1.691e-22   -21.195   -21.772    -0.577     (0)  
Fe(3)         2.715e-05
   Fe(OH)3         2.542e-05   2.542e-05    -4.595    -4.595     0.000     (0)  
   Fe(OH)2+        1.170e-06   8.517e-07    -5.932    -6.070    -0.138     (0)  
   Fe(OH)4-        5.594e-07   4.073e-07    -6.252    -6.390    -0.138     (0)  
   FeOH+2          1.433e-10   4.032e-11    -9.844   -10.394    -0.551     (0)  
   FeCO3+          4.169e-11   3.036e-11   -10.380   -10.518    -0.138     (0)  
   Fe+3            7.555e-16   9.788e-17   -15.122   -16.009    -0.888     (0)  
   FeCl2+          3.258e-16   2.372e-16   -15.487   -15.625    -0.138     (0)  
   FeCl+2          7.771e-18   2.186e-18   -17.110   -17.660    -0.551     (0)  
   Fe2(OH)2+4      4.849e-18   4.375e-20   -17.314   -19.359    -2.045     (0)  
   FeSO4+          1.769e-18   1.288e-18   -17.752   -17.890    -0.138     (0)  
   FeNO3+2         3.006e-19   8.455e-20   -18.522   -19.073    -0.551     (0)  
   Fe3(OH)4+5      9.200e-21   7.786e-24   -20.036   -23.109    -3.072     (0)  
   FeCl4-          7.037e-21   5.123e-21   -20.153   -20.290    -0.138     (0)  
   Fe(SO4)2-       4.065e-21   2.960e-21   -20.391   -20.529    -0.138     (0)  
H(0)          3.655e-27
   H2              1.828e-27   1.922e-27   -26.738   -26.716     0.022     (0)  
K             1.682e-03
   K+              1.675e-03   1.178e-03    -2.776    -2.929    -0.153     (0)  
   KCl             5.301e-06   5.301e-06    -5.276    -5.276     0.000     (0)  
   KSO4-           1.775e-06   1.293e-06    -5.751    -5.889    -0.138     (0)  
   KOH             2.605e-10   2.605e-10    -9.584    -9.584     0.000     (0)  
   KHSO4           1.775e-14   1.775e-14   -13.751   -13.751     0.000     (0)  
Li            5.265e-04
   Li+             5.243e-04   4.027e-04    -3.280    -3.395    -0.115     (0)  
   LiCl            1.771e-06   1.771e-06    -5.752    -5.752     0.000     (0)  
   LiSO4-          4.428e-07   3.224e-07    -6.354    -6.492    -0.138     (0)  
   LiOH            5.885e-10   5.885e-10    -9.230    -9.230     0.000     (0)  
Mg            1.698e-03
   Mg+2            1.400e-03   5.361e-04    -2.854    -3.271    -0.417     (0)  
   MgHCO3+         1.611e-04   1.173e-04    -3.793    -3.931    -0.138     (0)  
   MgCl+           7.704e-05   5.610e-05    -4.113    -4.251    -0.138     (0)  
   MgCO3           3.045e-05   3.045e-05    -4.516    -4.516     0.000     (0)  
   MgSO4           1.947e-05   1.947e-05    -4.711    -4.711     0.000     (0)  
   MgB(OH)4+       9.732e-06   7.086e-06    -5.012    -5.150    -0.138     (0)  
   Mg4(OH)4+4      2.697e-20   2.433e-22   -19.569   -21.614    -2.045     (0)  
Mn(2)         2.772e-06
   Mn+2            1.521e-06   4.988e-07    -5.818    -6.302    -0.484     (0)  
   MnCO3           9.377e-07   9.377e-07    -6.028    -6.028     0.000     (0)  
   MnCl+           1.955e-07   1.424e-07    -6.709    -6.847    -0.138     (0)  
   MnHCO3+         9.825e-08   7.154e-08    -7.008    -7.145    -0.138     (0)  
   MnSO4           1.673e-08   1.673e-08    -7.776    -7.776     0.000     (0)  
   MnOH+           1.123e-09   8.179e-10    -8.949    -9.087    -0.138     (0)  
   MnCl3-          7.673e-10   5.587e-10    -9.115    -9.253    -0.138     (0)  
   MnNO3+          9.379e-11   6.829e-11   -10.028   -10.166    -0.138     (0)  
   MnSeO4          1.077e-11   1.077e-11   -10.968   -10.968     0.000     (0)  
   Mn(OH)2         1.281e-13   1.281e-13   -12.892   -12.892     0.000     (0)  
   Mn2(OH)3+       1.117e-13   8.133e-14   -12.952   -13.090    -0.138     (0)  
   Mn(NO3)2        1.482e-14   1.482e-14   -13.829   -13.829     0.000     (0)  
   Mn2OH+3         6.865e-15   4.372e-16   -14.163   -15.359    -1.196     (0)  
   Mn(OH)3-        1.053e-17   7.665e-18   -16.978   -17.115    -0.138     (0)  
   Mn(OH)4-2       1.564e-23   4.141e-24   -22.806   -23.383    -0.577     (0)  
Mn(3)         2.089e-27
   Mn+3            2.089e-27   1.330e-28   -26.680   -27.876    -1.196     (0)  
Mn(6)         0.000e+00
   MnO4-2          0.000e+00   0.000e+00   -45.721   -46.298    -0.577     (0)  
Mn(7)         0.000e+00
   MnO4-           0.000e+00   0.000e+00   -51.509   -51.654    -0.145     (0)  
N(-03)        3.327e-03
   N3-             1.108e-03   8.069e-04    -2.955    -3.093    -0.138     (0)  
   HN3             6.328e-07   6.328e-07    -6.199    -6.199     0.000     (0)  
N(5)          1.232e-04
   NO3-            1.229e-04   8.638e-05    -3.911    -4.064    -0.153     (0)  
   CaNO3+          3.067e-07   2.233e-07    -6.513    -6.651    -0.138     (0)  
   SrNO3+          1.664e-08   1.212e-08    -7.779    -7.917    -0.138     (0)  
   BaNO3+          5.610e-09   4.084e-09    -8.251    -8.389    -0.138     (0)  
   MnNO3+          9.379e-11   6.829e-11   -10.028   -10.166    -0.138     (0)  
   HNO3            7.031e-14   7.031e-14   -13.153   -13.153     0.000     (0)  
   Mn(NO3)2        1.482e-14   1.482e-14   -13.829   -13.829     0.000     (0)  
   FeNO3+2         3.006e-19   8.455e-20   -18.522   -19.073    -0.551     (0)  
Na            1.933e-01
   Na+             1.862e-01   1.356e-01    -0.730    -0.868    -0.138     (0)  
   NaHCO3          3.653e-03   3.653e-03    -2.437    -2.437     0.000     (0)  
   NaCl            3.194e-03   3.194e-03    -2.496    -2.496     0.000     (0)  
   NaSO4-          1.673e-04   1.218e-04    -3.777    -3.914    -0.138     (0)  
   NaB(OH)4        4.228e-05   4.228e-05    -4.374    -4.374     0.000     (0)  
   NaCO3-          3.499e-05   2.548e-05    -4.456    -4.594    -0.138     (0)  
   NaOH            1.438e-08   1.438e-08    -7.842    -7.842     0.000     (0)  
O(0)          3.234e-39
   O2              1.617e-39   1.700e-39   -38.791   -38.770     0.022     (0)  
S(6)          7.134e-04
   SO4-2           5.136e-04   1.360e-04    -3.289    -3.867    -0.577     (0)  
   NaSO4-          1.673e-04   1.218e-04    -3.777    -3.914    -0.138     (0)  
   MgSO4           1.947e-05   1.947e-05    -4.711    -4.711     0.000     (0)  
   CaSO4           1.024e-05   1.024e-05    -4.990    -4.990     0.000     (0)  
   KSO4-           1.775e-06   1.293e-06    -5.751    -5.889    -0.138     (0)  
   SrSO4           6.031e-07   6.031e-07    -6.220    -6.220     0.000     (0)  
   LiSO4-          4.428e-07   3.224e-07    -6.354    -6.492    -0.138     (0)  
   MnSO4           1.673e-08   1.673e-08    -7.776    -7.776     0.000     (0)  
   FeSO4           2.200e-09   2.200e-09    -8.658    -8.658     0.000     (0)  
   HSO4-           2.936e-10   2.137e-10    -9.532    -9.670    -0.138     (0)  
   KHSO4           1.775e-14   1.775e-14   -13.751   -13.751     0.000     (0)  
   FeSO4+          1.769e-18   1.288e-18   -17.752   -17.890    -0.138     (0)  
   Fe(SO4)2-       4.065e-21   2.960e-21   -20.391   -20.529    -0.138     (0)  
   H2SO4           3.138e-21   3.138e-21   -20.503   -20.503     0.000     (0)  
Se(-2)        0.000e+00
   HSe-            0.000e+00   0.000e+00   -48.572   -48.710    -0.138     (0)  
   H2Se            0.000e+00   0.000e+00   -52.697   -52.697     0.000     (0)  
   Se-2            0.000e+00   0.000e+00   -55.272   -55.849    -0.577     (0)  
Se(4)         6.226e-07
   SeO3-2          5.577e-07   1.476e-07    -6.254    -6.831    -0.577     (0)  
   HSeO3-          6.485e-08   4.722e-08    -7.188    -7.326    -0.138     (0)  
   H2SeO3          2.792e-13   2.792e-13   -12.554   -12.554     0.000     (0)  
Se(6)         3.031e-07
   SeO4-2          3.031e-07   8.024e-08    -6.518    -7.096    -0.577     (0)  
   MnSeO4          1.077e-11   1.077e-11   -10.968   -10.968     0.000     (0)  
   HSeO4-          1.458e-13   1.062e-13   -12.836   -12.974    -0.138     (0)  
Sr            7.878e-05
   Sr+2            7.476e-05   2.223e-05    -4.126    -4.653    -0.527     (0)  
   SrCl+           2.431e-06   1.770e-06    -5.614    -5.752    -0.138     (0)  
   SrCO3           9.656e-07   9.656e-07    -6.015    -6.015     0.000     (0)  
   SrSO4           6.031e-07   6.031e-07    -6.220    -6.220     0.000     (0)  
   SrNO3+          1.664e-08   1.212e-08    -7.779    -7.917    -0.138     (0)  
   SrOH+           9.990e-11   7.274e-11   -10.000   -10.138    -0.138     (0)  

------------------------------Saturation indices-------------------------------

  Phase               SI** log IAP   log K(298 K,   1 atm)

  Alstonite         1.07      3.65    2.58  BaCa(CO3)2
  Anhydrite        -2.80     -7.15   -4.35  CaSO4
  Antarcticite     -9.15     -5.05    4.09  CaCl2:6H2O
  Aphthitalite    -13.50    -17.39   -3.89  NaK3(SO4)2
  Aragonite         0.83      2.80    1.97  CaCO3
  Arcanite         -7.88     -9.72   -1.84  K2SO4
  Arsenolite      -44.39    -64.23  -19.84  As2O3
  Artinite         -4.49     15.14   19.63  Mg2CO3(OH)2:3H2O
  As              -45.72     -3.04   42.68  As
  As2O5           -33.79    -31.66    2.14  As2O5
  As4O6(cubi)     -88.64   -128.46  -39.82  As4O6
  As4O6(mono)     -88.41   -128.46  -40.05  As4O6
  B               -82.81     26.74  109.56  B
  B(g)           -174.10     26.74  200.84  B
  B2O3            -10.21     -4.66    5.55  B2O3
  Ba             -111.46     29.77  141.23  Ba
  Ba(OH)2:8H2O    -14.13     10.36   24.49  Ba(OH)2:8H2O
  BaCl2            -9.20     -6.97    2.23  BaCl2
  BaCl2:2H2O       -7.18     -6.98    0.21  BaCl2:2H2O
  BaCl2:H2O        -7.80     -6.97    0.82  BaCl2:H2O
  BaMnO4          -41.43    -51.52  -10.09  BaMnO4
  BaO             -37.41     10.39   47.80  BaO
  Barite            0.92     -9.09  -10.01  BaSO4
  Barytocalcite     0.91      3.65    2.74  BaCa(CO3)2
  BaSeO3           -5.48    -12.06   -6.57  BaSeO3
  BaSeO4           -4.86    -12.32   -7.46  BaSeO4
  Bassanite        -3.45     -7.16   -3.71  CaSO4:0.5H2O
  Birnessite      -53.65   -139.19  -85.55  Mn8O14:5H2O
  Bischofite       -9.43     -5.04    4.39  MgCl2:6H2O
  Bixbyite         -7.95     -8.91   -0.96  Mn2O3
  Bloedite        -10.27    -12.75   -2.48  Na2Mg(SO4)2:4H2O
  Borax            -7.52      4.52   12.04  Na2(B4O5(OH)4):8H2O
  Boric_acid       -2.18     -2.34   -0.16  B(OH)3
  Brucite          -3.94     12.34   16.28  Mg(OH)2
  Burkeite        -16.34     -6.86    9.49  Na6CO3(SO4)2
  C               -34.91     29.24   64.15  C
  C(g)           -152.53     29.24  181.77  C
  Ca             -108.12     31.71  139.83  Ca
  Ca(g)          -133.36     31.71  165.07  Ca
  Ca2Cl2(OH)2:H2O -19.00      7.29   26.29  Ca2Cl2(OH)2:H2O
  Ca3(AsO4)2      -12.49      5.32   17.80  Ca3(AsO4)2
  Ca4Cl2(OH)6:13H2O -36.44     31.89   68.33  Ca4Cl2(OH)6:13H2O
  Calcite           0.97      2.80    1.82  CaCO3
  Carnallite      -13.11     -8.84    4.27  KMgCl3:6H2O
  CaSeO3:2H2O      -5.49    -10.12   -4.63  CaSeO3:2H2O
  CaSeO4           -7.29    -10.38   -3.09  CaSeO4
  CaSO4:0.5H2O(beta)  -3.62     -7.16   -3.54  CaSO4:0.5H2O
  Celestite        -2.80     -8.52   -5.72  SrSO4
  Chloromagnesite -26.83     -5.02   21.82  MgCl2
  Cl2(g)          -39.74    -36.74    2.99  Cl2
  Claudetite      -44.44    -64.23  -19.80  As2O3
  CO2(g)           -1.70     -9.53   -7.83  CO2
  Colemanite      -10.87     10.64   21.51  Ca2B6O11:5H2O
  Dolomite          3.13      5.61    2.47  CaMg(CO3)2
  Dolomite-dis      1.60      5.61    4.01  CaMg(CO3)2
  Dolomite-ord      3.14      5.61    2.46  CaMg(CO3)2
  Downeyite       -15.65    -22.44   -6.79  SeO2
  Epsomite         -5.20     -7.16   -1.96  MgSO4:7H2O
  Fe              -31.01     28.01   59.02  Fe
  Fe(OH)2          -5.28      8.62   13.89  Fe(OH)2
  Fe(OH)3           1.77      7.41    5.64  Fe(OH)3
  Fe2(SO4)3       -46.67    -43.62    3.05  Fe2(SO4)3
  FeO              -4.90      8.62   13.52  FeO
  Ferrite-Ca        5.65     27.14   21.50  CaFe2O4
  Ferrite-Dicalcium -17.33     39.47   56.80  Ca2Fe2O5
  Ferrite-Mg        6.14     27.16   21.02  MgFe2O4
  Ferroselite     -64.38   -145.21  -80.82  FeSe2
  FeSO4           -13.46    -10.86    2.61  FeSO4
  Gaylussite       -4.04      7.13   11.16  CaNa2(CO3)2:5H2O
  Glauberite       -7.29    -12.76   -5.47  Na2Ca(SO4)2
  Goethite          6.88      7.41    0.53  FeOOH
  Gypsum           -2.63     -7.16   -4.53  CaSO4:2H2O
  H2(g)           -23.62    -26.72   -3.10  H2
  H2O(g)           -1.59     -0.00    1.59  H2O
  Halite           -3.30     -1.74    1.56  NaCl
  Hausmannite      -9.75      0.40   10.14  Mn3O4
  HCl(g)          -14.98     -8.68    6.30  HCl
  Hematite         14.74     14.82    0.08  Fe2O3
  Hexahydrite      -5.43     -7.16   -1.73  MgSO4:6H2O
  Huntite           1.01     11.23   10.22  CaMg3(CO3)4
  Hydroboracite    -9.71     10.65   20.36  MgCaB6O11:6H2O
  Hydromagnesite   -7.16     23.58   30.74  Mg5(CO3)4(OH)2:4H2O
  Hydrophilite    -16.78     -5.03   11.75  CaCl2
  Ice              -0.14     -0.00    0.14  H2O
  Jarosite         -2.45    -11.86   -9.41  KFe3(SO4)2(OH)6
  Jarosite-Na      -4.35     -9.80   -5.45  NaFe3(SO4)2(OH)6
  K               -56.41     14.57   70.98  K
  K(g)            -67.01     14.57   81.58  K
  K2CO3:1.5H2O    -13.16      0.22   13.38  K2CO3:1.5H2O
  K2O             -74.28      9.75   84.04  K2O
  K2Se            -72.99    -61.71   11.29  K2Se
  K3H(SO4)2       -20.70    -24.33   -3.62  K3H(SO4)2
  K8H4(CO3)6:3H2O -45.88    -18.17   27.71  K8H4(CO3)6:3H2O
  Kainite         -10.64    -10.95   -0.31  KMgClSO4:3H2O
  Kalicinite       -4.94     -4.65    0.28  KHCO3
  Kieserite        -6.87     -7.14   -0.27  MgSO4:H2O
  KMgCl3          -30.06     -8.82   21.25  KMgCl3
  KMgCl3:2H2O     -22.79     -8.82   13.96  KMgCl3:2H2O
  KNaCO3:6H2O      -7.99      2.27   10.26  KNaCO3:6H2O
  Lansfordite      -2.04      2.80    4.84  MgCO3:5H2O
  Lawrencite      -17.79     -8.74    9.05  FeCl2
  Leonite         -12.76    -16.87   -4.11  K2Mg(SO4)2:4H2O
  Li              -58.66     14.10   72.76  Li
  Li(g)           -80.84     14.10   94.94  Li
  Li2Se           -58.28     44.53  102.82  Li2Se
  Lime            -20.24     12.33   32.57  CaO
  Magnesite         0.54      2.81    2.27  MgCO3
  Magnetite        13.02     23.44   10.42  Fe3O4
  Manganite        -4.29     -4.46   -0.16  MnO(OH)
  Manganosite      -8.61      9.31   17.92  MnO
  Melanterite      -8.48    -10.88   -2.40  FeSO4:7H2O
  Mercallite      -13.16    -14.60   -1.44  KHSO4
  Mg              -90.79     31.73  122.52  Mg
  Mg(g)          -110.52     31.73  142.25  Mg
  Mg1.25SO4(OH)0.5:0.5H2O  -9.25     -4.05    5.20  Mg1.25SO4(OH)0.5:0.5H2O
  Mg1.5SO4(OH)    -10.18     -0.97    9.21  Mg1.5SO4(OH)
  MgCl2:2H2O      -17.75     -5.02   12.73  MgCl2:2H2O
  MgCl2:4H2O      -12.33     -5.03    7.30  MgCl2:4H2O
  MgCl2:H2O       -21.09     -5.02   16.07  MgCl2:H2O
  MgOHCl          -12.23      3.66   15.89  MgOHCl
  MgSeO3          -11.77    -10.10    1.67  MgSeO3
  MgSeO3:6H2O      -6.69    -10.12   -3.44  MgSeO3:6H2O
  MgSO4           -11.97     -7.14    4.83  MgSO4
  Mirabilite       -4.48     -5.63   -1.15  Na2SO4:10H2O
  Misenite        -86.27    -97.34  -11.08  K8H6(SO4)7
  Mn              -54.24     28.70   82.93  Mn
  Mn(OH)2(am)      -6.00      9.31   15.31  Mn(OH)2
  Mn(OH)3         -10.80     -4.46    6.34  Mn(OH)3
  MnCl2:2H2O      -12.05     -8.05    4.00  MnCl2:2H2O
  MnCl2:4H2O      -10.81     -8.06    2.75  MnCl2:4H2O
  MnCl2:H2O       -13.59     -8.05    5.54  MnCl2:H2O
  MnO2(gamma)     -10.17    -26.30  -16.13  MnO2
  MnSe            -51.45    -62.15  -10.70  MnSe
  MnSeO3           -5.86    -13.13   -7.27  MnSeO3
  MnSeO3:2H2O      -6.81    -13.14   -6.33  MnSeO3:2H2O
  MnSO4           -12.78    -10.17    2.61  MnSO4
  Molysite        -32.10    -18.63   13.47  FeCl3
  Monohydrocalcite   0.11      2.79    2.68  CaCO3:H2O
  Na              -50.74     16.63   67.37  Na
  Na(g)           -64.23     16.63   80.86  Na
  Na2CO3           -6.82      4.35   11.16  Na2CO3
  Na2CO3:7H2O      -5.61      4.33    9.94  Na2CO3:7H2O
  Na2O            -53.54     13.88   67.42  Na2O
  Na2Se           -69.41    -57.58   11.83  Na2Se
  Na2Se2          -87.08   -148.43  -61.35  Na2Se2
  Na3H(SO4)2      -17.25    -18.14   -0.89  Na3H(SO4)2
  Na4Ca(SO4)3:2H2O -12.47    -18.36   -5.89  Na4Ca(SO4)3:2H2O
  NaFeO2           -5.54     14.35   19.88  NaFeO2
  Nahcolite        -2.45     -2.59   -0.14  NaHCO3
  Natron           -5.27      4.32    9.59  Na2CO3:10H2O
  Nesquehonite     -2.49      2.80    5.29  MgCO3:3H2O
  Niter            -6.77     -6.99   -0.22  KNO3
  Nitrobarite     -10.86    -13.35   -2.49  Ba(NO3)2
  NO2(g)          -10.53     -2.18    8.35  NO2
  O2(g)           -35.88    -38.77   -2.89  O2
  Oxychloride-Mg   -9.84     15.99   25.83  Mg2Cl(OH)3:4H2O
  Pentahydrite     -5.77     -7.15   -1.39  MgSO4:5H2O
  Periclase        -8.98     12.34   21.33  MgO
  Picromerite     -12.44    -16.88   -4.44  K2Mg(SO4)2:6H2O
  Pirssonite       -4.19      7.14   11.32  Na2Ca(CO3)2:2H2O
  Polyhalite      -16.86    -31.18  -14.31  K2MgCa2(SO4)4:2H2O
  Portlandite     -10.22     12.32   22.55  Ca(OH)2
  Pyrolusite       -8.64    -26.30  -17.66  MnO2
  Rhodochrosite    -0.00     -0.22   -0.22  MnCO3
  Scacchite       -16.79     -8.05    8.74  MnCl2
  Se               -9.77     16.33   26.10  Se
  Se2O5           -54.64    -45.15    9.49  Se2O5
  SeCl4           -71.49    -57.16   14.33  SeCl4
  SeO3            -41.87    -22.71   19.16  SeO3
  Siderite         -0.69     -0.91   -0.22  FeCO3
  Sr             -111.43     30.34  141.77  Sr
  Sr(NO3)2        -13.92    -12.78    1.14  Sr(NO3)2
  Sr(NO3)2:4H2O   -13.48    -12.79    0.69  Sr(NO3)2:4H2O
  Sr(OH)2         -16.56     10.96   27.52  Sr(OH)2
  Sr3(AsO4)2      -19.39      1.22   20.61  Sr3(AsO4)2
  SrCl2           -14.30     -6.40    7.90  SrCl2
  SrCl2:2H2O       -9.69     -6.40    3.29  SrCl2:2H2O
  SrCl2:6H2O       -7.91     -6.42    1.49  SrCl2:6H2O
  SrCl2:H2O       -11.14     -6.40    4.73  SrCl2:H2O
  SrO             -30.92     10.96   41.88  SrO
  SrSeO4           -7.35    -11.75   -4.40  SrSeO4
  Starkeyite       -6.15     -7.15   -1.00  MgSO4:4H2O
  Strontianite      1.77      1.43   -0.34  SrCO3
  Sylvite          -4.63     -3.80    0.83  KCl
  Syngenite        -9.28    -16.88   -7.60  K2Ca(SO4)2:H2O
  Tachyhydrite    -32.25    -15.10   17.14  Mg2CaCl6:12H2O
  Thenardite       -5.24     -5.60   -0.36  Na2SO4
  Thermonatrite    -6.59      4.34   10.94  Na2CO3:H2O
  Todorokite      -42.84    -88.66  -45.82  Mn7O12:3H2O
  Trona-K         -13.96     -2.37   11.59  K2NaH(CO3)2:2H2O
  Witherite         3.87      0.86   -3.02  BaCO3
  Wustite          -4.37      8.04   12.40  Fe.947O

**For a gas, SI = log10(fugacity). Fugacity = pressure * phi / 1 atm.
  For ideal gases, phi = 1.

------------------
End of simulation.
------------------

------------------------------------
Reading input data for simulation 6.
------------------------------------

-------------------------------
End of Run after 0.205 Seconds.
-------------------------------

